     224
 Particles+Wannier centers. Iteration:1_550
  O         1.3248617013       -0.3921376385        3.7905498004
  H         1.5038572904        0.4351506024        3.1968684707
  H         0.6740988720       -0.8735893842        3.2625187325
  O         0.5613355056        0.1238999600       -3.6378578069
  H         0.8158396883       -0.1561714086       -4.5553729671
  H         0.5981699171        1.1369592902       -3.6877433454
  O        -4.1744134008        3.7724624617       -4.8088559715
  H        -4.6918567651        3.5002888160        4.4580642561
  H        -4.3986017317        4.6899562575       -4.5894322109
  O        -3.2464122705       -0.4557027366        1.0068605204
  H        -2.9956111728        0.4783932223        0.9221253636
  H        -3.9145180071       -0.5047511448        1.7130836046
  O         0.2739913288        2.8540273148       -3.8888309851
  H         1.1495227810        3.3558878628       -3.8367691406
  H        -0.0166996386        3.0322694452       -4.7723523689
  O        -0.8777960171       -3.3116556725        4.0563850608
  H        -0.9353525219       -2.8101170462        3.2570131059
  H        -1.0101218549       -4.2320813172        3.7549840489
  O        -3.2984880091       -3.4258100179        1.2525200738
  H        -4.2589731683       -3.3598338196        1.2796313130
  H        -2.8974327390       -2.5628223072        1.4664217039
  O        -0.2153686848        0.7318280680       -0.6645144010
  H         0.7989604793        0.7337204852       -0.6568843800
  H        -0.3842323790       -0.1878908347       -1.0939561505
  O        -1.3520407101        4.1366681205        4.3262954334
  H        -1.3902255697        4.0547110418        3.3557410817
  H        -2.2425017400        3.7828488892        4.6686645421
  O         1.9450117664       -3.3383063400        4.7909639857
  H         0.9779175991       -3.3099515711        4.5392474641
  H         2.2080517522       -2.5745317784       -4.8107037663
  O        -0.4453461557       -1.6019223915        1.8080136663
  H        -0.8649065805       -0.6789453522        1.6498591367
  H        -0.1268640568       -1.9163463668        0.8960986171
  O         3.5181229275       -3.4506302823       -0.0440226286
  H         4.3170533200       -3.1023442216       -0.4676863346
  H         3.5219072838       -3.0382474449        0.8386049442
  O        -1.6730780575        1.2034019639        4.4716275292
  H        -1.6303677864        1.2930724810        3.4873475151
  H        -0.9216375920        0.5859127744        4.6359067841
  O        -3.9105213261       -1.0385798535       -3.8319883880
  H        -4.7877683344       -0.6551547352       -4.1081831567
  H        -3.3928079683       -0.2740644304       -3.5269451483
  O        -4.4705912205        0.1873740487        3.6245086777
  H        -3.5528420131        0.1730921850        4.0268225951
  H        -4.9819056846        0.9304734640        3.9368056591
  O        -3.3158600513       -3.7416207447       -3.9269800643
  H        -2.5427632992       -4.1265304354       -4.3455378138
  H        -3.3823728859       -2.7826334425       -4.1014415602
  O        -1.7616198345        1.8572877512        1.5765373243
  H        -1.8769882718        2.8064754064        1.4215024634
  H        -1.1940977714        1.5090867434        0.8375824238
  O         2.1244468632        1.9416413353        1.7158079543
  H         2.5145656509        1.5934057174        0.8690322733
  H         1.6014944733        2.7193473121        1.3471289398
  O         4.7408703399        2.2849539932       -2.5859042599
  H        -4.4611513429        2.0721806440       -2.3315471957
  H         4.9259770063        2.6509782346       -3.5060513085
  O         3.3837559115       -1.0194561752       -4.1224065828
  H         2.9592514262       -0.6302619889       -3.3064263281
  H         3.1429329379       -0.3800900887       -4.8214758137
  O         0.8827919985       -2.7720358426       -0.0702144649
  H         0.5774111141       -2.7698073861       -1.0038428855
  H         1.8452572386       -2.9278628123       -0.0736527942
  O        -4.2086096376       -4.1845162583       -1.3920472665
  H        -3.7250447818       -4.0749787346       -2.2612452262
  H        -3.4995324373       -4.0115976694       -0.7301866939
  O         5.0273947284       -1.1856191937       -1.1144460884
  H        -4.3910576301       -0.9758791988       -0.4814035074
  H        -4.6684261425       -1.4565456886       -1.9181040821
  O        -2.3900574627        1.3961547534       -2.9328020183
  H        -1.6708669030        1.7097232297       -2.3147253218
  H        -2.1261303491        1.5187437283       -3.8707605111
  O        -0.8165088674       -1.6182028009       -2.1811873983
  H        -0.2859337976       -1.0684395114       -2.7809562622
  H        -1.7269492371       -1.5199176908       -2.4783561621
  O         0.5926134172        3.8693017214       -0.3110231771
  H         1.4013829732        4.3675339147       -0.5134453654
  H         0.2705331649        3.4794483325       -1.1265891169
  O         3.6988089702        2.4698165943        4.0192137264
  H         3.1962399051        3.0201617890        4.6423208106
  H         3.2744444724        2.5515881717        3.1000629574
  O         3.1257126983        4.1770993753       -1.2939213324
  H         3.8018242115        3.5406475628       -1.5139591407
  H         3.5506629150        4.8881563258       -0.8288055370
  O         4.1173228268       -2.4741761489        2.4665648262
  H         4.6066722711       -1.7056143834        2.7489008328
  H         3.6335985246       -2.8254928891        3.2605681590
  O         2.6616164314        0.5916965333       -1.0393725787
  H         3.4217812848       -0.0765834602       -0.9883104791
  H         2.9823341119        1.3860734061       -1.5628523197
  O         2.6217521351        4.2543412960       -4.1369906965
  H         2.6902476358        4.5408527553       -3.1724449414
  H         2.4295573910       -4.9866856977       -4.6360557956
  O        -1.6465401550        4.5402903440        1.3708519495
  H        -0.7818024057        4.5933244558        0.9198087240
  H        -2.1323856335       -4.7565949888        1.2029398008
  X        -3.5624956652       -3.8766792240       -4.0626525823
  X        -3.2913857164       -3.7806784738       -3.5964289727
  X        -3.3244782854       -3.2550366963       -4.0296080842
  X        -2.8980156305       -3.9256873322       -4.1489622679
  X        -3.9609226460       -4.1250786375       -1.8244514773
  X        -4.3062440305        4.2527775728       -4.7135460624
  X        -3.7681445446       -1.1853838660       -4.0738668738
  X        -4.4200512379       -3.9522430105       -1.3590047756
  X        -4.2827574743       -4.4774822641       -1.3634810593
  X        -3.8271050095       -4.0929456712       -1.0502651633
  X        -3.9673455405       -1.2031622071       -3.5686431876
  X        -3.8537313389        3.7666473097       -4.8796876356
  X        -4.2951068562        3.5853008976       -4.5753323199
  X        -4.3488289211       -0.8315828860       -3.9736072461
  X        -3.6413509063       -0.6352895238       -3.6852159810
  X        -4.4368100413        3.6580654509        4.8574447336
  X        -1.1061657794       -3.2434436648        4.2472161361
  X        -4.8430714769       -1.3160709078       -1.5379935979
  X        -1.8068242494        3.9561581906        4.4848138037
  X        -3.8031942855       -3.3738293508        1.2734333963
  X        -3.2244559609       -3.4796160961        0.9511535188
  X        -1.3032949496       -1.5625103521       -2.3494532947
  X         2.6639401447        4.4074608597       -3.6569740914
  X        -3.2013570642       -3.6411282269        1.4584487089
  X         3.2387925170       -1.2962446794       -4.1899438211
  X        -0.5579505929       -3.2921714767        4.1491173814
  X         2.0539953290       -2.9349520144       -5.0368546202
  X         4.8271109251        2.4638454288       -3.0543437166
  X        -0.9440884094       -3.7821774326        3.8849619618
  X        -3.1122619985       -2.9683773910        1.3731336103
  X        -2.6502947692        1.5699134674       -2.8774930362
  X        -1.3504603605        4.4537816665        4.3703191140
  X         2.5293432684        4.6840339017       -4.3824452004
  X         2.1048592050       -3.3080688107        4.5262010480
  X         2.0020224343       -3.6210530117        4.9722485257
  X         2.3387142790        4.0742404246       -4.1446943827
  X         4.9004024180       -1.4380143164       -1.0040669860
  X         3.7071971938       -0.9952822274       -4.0888495470
  X        -4.8824144858        2.1734101523       -2.4461134658
  X        -0.7305676983       -1.9193437745       -2.1847244204
  X        -2.4190087327        1.0763732968       -2.9023616689
  X         4.6318506953        2.5287198809       -2.3950718184
  X        -0.9174853176       -3.0509687596        3.6328913895
  X        -1.3841541418        4.0819700478        3.8199636301
  X        -4.7008731930       -1.0737533956       -0.7997176097
  X         3.9259428110       -3.2623686989       -0.2533626664
  X        -2.2362997224        1.4756704342       -3.4055645014
  X         3.8770431342       -2.6424691194        2.8863372524
  X        -0.5603516406       -1.3535305023       -2.4995879443
  X         1.4561191240       -3.3039573635        4.6812172517
  X         3.1639768475       -0.8110076092       -3.7011100941
  X        -4.0033196892        0.2006143489        3.8411137220
  X         2.8887187142        4.1180381616       -4.2426536189
  X         3.3588932677        4.5367691857       -1.0536069095
  X         4.8363047518       -0.9231751934       -1.1596600550
  X         4.3317848050       -2.6847681521        2.3882732268
  X         4.5786798450        2.0191411470       -2.6032891778
  X        -2.0062649060        1.5616478528       -2.6290392703
  X         3.2512790526       -0.6758938632       -4.4834314784
  X        -1.1125317674        3.9526546346        4.4343710718
  X         4.3657571212       -2.0623603956        2.6231234075
  X        -0.7985008695       -1.4483322776       -1.8997061017
  X         3.2497650540       -3.3293326356       -0.1860975215
  X         3.5464650635       -3.7739931861       -0.0190577493
  X        -4.6149947416       -0.0688159506        3.7192898782
  X        -1.8860938473        4.9527933376        1.2684090745
  X        -4.7175694002        0.5864785881        3.8015037410
  X        -1.9403344245        1.0385924563        4.5322575899
  X         3.0366164430        4.2943353217       -1.5836781337
  X         3.4764730247        3.8441312246       -1.3836117862
  X         0.7096191817        3.1040747176       -3.8628041821
  X         3.9045198622       -2.3987018194        2.2429508032
  X         3.5276364174       -3.2452942841        0.4112163323
  X        -4.4334730472        0.2187387164        3.3100530695
  X        -1.5845833003        4.5358674923        1.6874079944
  X         4.0008246856        2.6027547480        4.0071829259
  X         0.0726824841        2.9726551225       -3.6930566479
  X        -1.6185082959        1.4676274963        4.6138426390
  X        -3.0001967658       -0.6113981018        1.1078388541
  X        -1.7967461151        4.2743434102        1.2568158920
  X         0.1348636341        2.9449701434       -4.3581327017
  X        -1.2766550137        0.8783638673        4.5522852471
  X        -3.6007686117       -0.4695421605        1.3773430471
  X         0.2581983999        0.0154602189       -3.5757046933
  X         2.8957348867        4.0589339449       -1.1069448043
  X         0.7468355525       -2.7709729032       -0.5681362208
  X        -3.3958561284       -0.5474728198        0.7294096808
  X         3.4241974486        2.7513757227        4.3286128443
  X         0.3516247582        2.5158592416       -3.8678140186
  X        -1.2023372449        4.5850209365        1.1380729590
  X         0.7840131110        0.0255040077       -3.4618685659
  X         3.6803050708        2.1662064426        4.1007272592
  X        -1.6470714145        1.2516167314        3.9703560127
  X         0.6828329441       -0.0123141643       -4.1131745786
  X         1.3717067053       -2.8303130148       -0.0793275626
  X        -3.1338536558        0.0301045910        0.9726988849
  X         0.7665449699       -3.0196783806        0.0426672967
  X         0.5764288538        0.6207636696       -3.6652481127
  X        -0.6807027433       -1.7971379590        1.9198789300
  X         0.7846889555       -2.4811639069        0.0694561637
  X         3.4782886815        2.5293779208        3.5611985032
  X         0.4352546306        3.6712401653       -0.7553710950
  X        -0.3044348173       -1.7379280860        1.3603891472
  X         1.5804483658       -0.5455552981        3.7974497856
  X        -0.1873169591       -1.5462417102        1.9972711959
  X         0.9978431065        4.1340269034       -0.4314221083
  X         3.0470811731        0.2633000529       -1.0282114329
  X         0.3593778818        4.0634440643       -0.1941569973
  X        -1.8069666015        2.3377403582        1.4913604065
  X         1.1805996364       -0.2921472682        4.0817616022
  X        -2.0463526989        1.7222844578        1.5151315127
  X         0.9838466928       -0.6375016559        3.5208814148
  X         2.8392935147        0.9958454610       -1.3143738941
  X        -0.6627328550       -1.1189768739        1.7210216717
  X        -0.2992213313        0.2698731016       -0.8677722934
  X        -1.6271858917        1.7978879363        1.8706516367
  X         2.4116115430        0.4725034095       -1.1798962603
  X         0.6891974460        3.6327786455       -0.1294785579
  X        -0.3122238145        0.9505151617       -0.8709718747
  X        -1.4616938786        1.6943789432        1.2032025628
  X         1.4029208399        0.0334282329        3.4919521809
  X        -0.3334392567        0.7398914447       -0.3466265111
  X         2.6212690168        0.7012573512       -0.7418605869
  X         0.2975068457        0.7351719246       -0.6545677749
  X         2.3688335076        2.0663652225        1.9025433595
  X         1.8534720308        2.3432971105        1.5304544204
  X         2.3271714506        1.7661059125        1.2811746388
  X         1.9267377217        1.7256108156        1.8349604601
