     224
 Particles+Wannier centers. Iteration:1_50
  O         0.8799478358        0.6383317306        3.1569568025
  H         1.4046592860        1.2232485826        2.4978364665
  H         1.1472783731       -0.2687458123        3.0229092093
  O         0.5392992531        0.6047144782       -4.0811918365
  H         0.6046520329        0.7717989911        5.0205733673
  H         0.4920176172        1.5269455293       -3.7236881865
  O        -3.8021765454        3.1600783692       -4.5455655916
  H        -4.5320715486        3.0937504111        4.9514896261
  H        -3.5088238380        4.0613340230       -4.5394597924
  O        -3.3469012765       -0.7064128847        1.2465212113
  H        -2.8025267532        0.0400523869        0.9522546175
  H        -4.0021091470       -0.2860104410        1.8702743713
  O         0.3248756156        3.4726658799       -3.4894309671
  H         1.1899893230        3.8476718227       -3.6797787219
  H        -0.2169948065        3.6170004768       -4.3039483317
  O         0.1817511506       -3.2899796651        4.4444908851
  H        -0.3794275893       -2.8281403124        3.7730122460
  H        -0.1011015635       -4.2367157627        4.4477162359
  O        -3.5572257156       -3.9914139409        1.2307607545
  H        -3.8399148426       -3.7290924056        2.1162078567
  H        -3.3840652296       -3.1373420102        0.8193229519
  O        -0.5516754543        0.6728696067       -1.2015562173
  H         0.5020310509        0.7204622919       -1.0824920033
  H        -0.6696102683       -0.2685014985       -1.4313650830
  O        -0.9664244589        4.3685034470        4.2915548406
  H        -0.4848125177        4.2415724103        3.4516771590
  H        -1.6888505779        3.6813001259        4.2860764408
  O         2.7456467219       -2.9308749990        4.5714368645
  H         1.7393397817       -3.0377403669        4.4308172219
  H         2.8225414567       -2.0997889003        5.0140821049
  O        -1.1404043335       -2.1850211065        2.3250002949
  H        -1.7511309155       -1.4040203662        2.1473008565
  H        -0.9277862227       -2.4859232977        1.4440244036
  O         2.1474079689       -3.2991989593        0.7783765440
  H         2.9846060767       -2.7982569620        0.8131072382
  H         1.7962559355       -3.2385565919        1.6855151558
  O        -1.9934993861        1.9844842430        3.3878294591
  H        -2.1119636458        1.9789006440        2.3542657115
  H        -1.2255984409        1.4261653789        3.5559929116
  O        -4.7986863196       -1.7146055983       -3.3038867405
  H         4.4164906035       -1.3732046054       -3.6074936617
  H        -4.1758965662       -0.9490362445       -3.4033963373
  O        -4.4114215643        0.2506561563        3.6414822039
  H        -3.5596476297        0.8127416458        3.6919015615
  H         5.0093467715        0.9089208658        3.8912962529
  O        -3.3229958376       -4.1085496151       -3.8838558837
  H        -2.6067514246       -3.8411931777       -4.4577521842
  H        -3.9011850159       -3.3415380390       -3.8826865305
  O        -2.1261200137        2.0125139058        0.6966115897
  H        -1.7787025499        2.9321253498        0.6414729227
  H        -1.4955835654        1.4762651273        0.1649347069
  O         2.5327438712        2.3575829250        1.7192633691
  H         3.1087903268        1.7361013783        1.2849489821
  H         1.9944157532        2.7565191432        1.0482512134
  O         4.3413105540        2.1082783992       -1.9266352445
  H        -5.0284195086        1.5661333975       -2.2816556015
  H         4.7597963747        2.6952852750       -1.3045335466
  O         2.9768565089       -0.4504083333       -4.1845887968
  H         2.1420496475       -0.1752573868       -3.6809529744
  H         3.3545724711        0.3982172699       -4.4290378712
  O        -0.6848417856       -3.1201552610       -0.5961827089
  H        -0.8254597617       -2.6975094073       -1.4365530672
  H         0.2702900423       -3.0487273987       -0.4214452322
  O        -4.6946669167        4.9128450735       -1.5206440738
  H        -3.8984310578       -5.0208076207       -2.0955804010
  H        -4.4467086139       -4.8528110754       -0.6551210152
  O         4.5200762178       -1.9741576113       -0.5443382991
  H        -4.8187326766       -1.6639427856       -0.0530857109
  H         4.8068092555       -1.9733963496       -1.4303500963
  O        -3.2287085689        0.8530619458       -2.7994561425
  H        -2.3956423920        0.9417250144       -2.3116242517
  H        -3.1613299276        1.5031432925       -3.5729092521
  O        -0.9015686150       -1.7161055944       -3.1381179145
  H        -0.6764523562       -0.9086803275       -3.6373861961
  H        -0.6403843258       -2.4329697305       -3.7091161648
  O         1.2352416705        3.1289778196       -0.6427697371
  H         1.9258853327        3.7029520403       -1.0078275357
  H         0.6247571383        2.8420323488       -1.3242824971
  O         3.8736184457        2.5053699678        4.4751081811
  H         3.7028597183        3.1856388858       -4.9337976605
  H         3.3072915575        2.7923361022        3.7807280954
  O         2.7299431185       -4.9256386480       -1.7029804552
  H         3.7479236385       -4.8593434206       -1.5599540575
  H         2.2877363411       -4.2589846120       -1.1790944471
  O        -4.5626539466       -2.9277011234        3.7104625403
  H        -4.5801839135       -1.9597586212        3.7603669763
  H         4.5972458619       -3.1310321569        3.9122581468
  O         2.5558914342        0.5248649563       -0.7758118732
  H         3.0907084884       -0.2905454119       -0.8063924990
  H         3.1076130682        1.1737035626       -1.2976283694
  O         2.9178601973        4.6490254780       -4.4377709747
  H         2.9320027153        4.9643120470       -3.4742760003
  H         2.9138520674       -4.6335091113       -4.9519567524
  O        -1.1198093802        4.6528821828        1.2645714350
  H        -0.5251102236        4.7520274596        0.5043495694
  H        -1.9641457996       -4.9060233418        1.1141166493
  X        -3.6205942759       -3.7148309977       -3.8946470598
  X        -3.4586600230       -4.3544299791       -4.0266588217
  X        -3.2156045493       -4.1468031485       -3.5855468012
  X        -2.9344171740       -3.9575088705       -4.1846535691
  X        -4.8302965797       -1.7545226576       -2.9855456549
  X        -4.2884890996        5.0104541403       -1.8087990424
  X        -4.6967508879       -1.9655432887       -3.4858900459
  X        -4.3941789228       -3.0214422875        3.9393932446
  X        -4.4855333645       -1.3132199560       -3.3673104212
  X        -3.6492461145        3.6381068933       -4.5607706131
  X         4.8628616389       -1.5396129806       -3.4661081965
  X        -4.9709885957       -5.0217730345       -1.6193486151
  X        -4.4955727168       -3.0171495564        3.3959323216
  X        -5.0470370070       -3.0313208611        3.8089183972
  X        -4.5551589472       -5.0050516985       -1.0667257997
  X        -3.9098257537        3.1098376941       -4.2695782826
  X        -3.5678075847        2.9733345717       -4.6424445773
  X        -4.5779902808       -2.4144663234        3.7303820410
  X        -4.7144312770        4.6070641240       -1.4840701746
  X        -1.2006637137       -1.7301240945       -3.1287495370
  X        -4.1795735060        3.1417662876       -4.8694774763
  X         2.9391747261        4.8161324210       -3.9625982915
  X        -3.6985065754       -3.8582769432        1.6840927053
  X        -0.7529438727       -2.0927484026       -3.4413946499
  X        -3.7979249075       -4.1221714425        1.0734811204
  X         2.8966329815       -2.9029546451        4.2923759092
  X         2.9244458794       -5.0346428840       -4.7029600624
  X         3.1762219132        4.4478473560       -4.5077888105
  X        -3.4689004510       -3.5319620016        1.0163430552
  X        -3.2452954361        0.5557636544       -2.9153866446
  X        -3.2627826888       -4.1495112059        1.2443143255
  X        -0.7380475218       -1.7285118933       -2.8564762931
  X         4.6770530311       -1.9756849853       -1.0054824731
  X        -3.1747861193        1.1783939570       -3.1935055753
  X         0.0456341031       -3.7711970669        4.4264817494
  X        -1.0592925028        4.6721283221        4.3005717593
  X         2.6853711119       -4.8780818458       -2.0314705082
  X        -3.4697192130        0.9641907786       -2.6195670255
  X         2.8338214092       -3.1787813025        4.7656085848
  X         2.7819915638       -2.5003119076        4.8113130973
  X         2.6275394610        4.5286605066       -4.4630043092
  X        -0.7787153737       -1.3057793445       -3.3993902839
  X         0.0937717390       -3.1837715577        4.7237024993
  X        -0.0999115094       -3.0694974600        4.1023877477
  X        -2.7884131162        0.9079389219       -2.5479078066
  X         4.4590471525       -2.2617167437       -0.4511929005
  X         3.2169433697       -4.8738382303       -1.6123898774
  X        -0.7469200138       -2.8937987197       -1.0365339008
  X        -1.3378504186        4.0422718020        4.2793859519
  X         4.9355340351       -1.8109817614       -0.2903563913
  X        -0.7646856106        4.2708772451        4.5318430206
  X         2.2657803146       -2.9703241958        4.4948317958
  X         2.5066947320       -4.5583526858       -1.4337381248
  X         3.2038346928       -0.6081524386       -3.9909716107
  X        -4.4043287569        0.0135694182        3.8446986086
  X         0.5232788897       -3.2567052548        4.3654246314
  X         0.0561958369        3.5516827228       -3.9086802276
  X         4.7243813679        1.8231592647       -2.0990661261
  X        -0.7404137784       -3.4164047309       -0.6273525463
  X         3.7885567387        2.8316667250        4.8276478638
  X        -0.8235247927       -2.9501304355       -0.3659931636
  X         4.2997602131       -1.7487693189       -0.5166607721
  X         2.6305070263        4.8828849690       -1.5770168608
  X        -3.9843028076        0.5311578887        3.6766294523
  X         0.7744157970        3.6726209941       -3.6006156464
  X        -1.3028976092       -2.3997936259        2.4578388360
  X         4.5697416459        2.4054829033       -1.5881360676
  X        -0.7173992212        4.2898194316        3.8525696789
  X         2.8851331174       -0.6004181264       -4.4498317775
  X        -4.4453467571        0.1858031108        3.3168971528
  X         0.2013393298        3.6153240466       -3.2514622532
  X         3.1725512459        0.0010144494       -4.3124784957
  X         4.2504300169        2.2763293238       -2.1488192496
  X        -1.5280457786        4.9333731216        1.1707999733
  X        -3.1497627329       -0.8791583295        1.4289362949
  X         4.1832211892        2.5472750210        4.3828842585
  X        -0.1759942009       -3.0743633986       -0.5215601136
  X        -4.7635774856        0.5886012455        3.7700485652
  X         3.7887979328        2.2101238906        4.5671269034
  X         0.3719880158        3.1433335947       -3.4743221056
  X         2.5730685566       -0.3175529285       -3.9205119792
  X        -1.0272479256       -2.3365050902        1.8576352780
  X        -3.4937527274       -0.8395363810        0.9967261308
  X        -1.4394067248       -1.7778594128        2.2346572631
  X        -1.9369161849        2.2831542595        3.4994653483
  X         4.1152116737        1.9042722917       -1.7651338283
  X        -3.6812621702       -0.4846033652        1.5507750126
  X        -0.9765044039        4.7368271610        1.5263700292
  X        -0.8141479673        4.7260228077        0.8575985025
  X         3.5719596482        2.6635697759        4.1067801625
  X        -0.8686545916       -2.0956044799        2.4741935257
  X         0.2600823452        0.4459888402       -4.0228569495
  X        -3.0678610853       -0.3080602546        1.0901317127
  X         2.5802829649       -3.0326074658        0.8099128984
  X        -2.2527063357        1.8085385777        3.4988007065
  X         0.8284290944        0.4744120067       -3.9858078715
  X         1.9434777501       -3.1520522203        0.5819226216
  X        -1.2173563150        4.3421588218        1.2306230464
  X        -1.5809463713        1.6900962691        3.4673013034
  X         2.2178869440       -3.5895846422        0.7342411487
  X         0.5110923163        1.0744344269       -3.9016152935
  X         0.5694103846        0.6953324769       -4.5845411944
  X         1.9654389426       -3.2591842803        1.2644788092
  X        -0.6121622983        0.1745972115       -1.3133096888
  X        -2.0331254405        1.9814208558        2.8911508485
  X        -2.4002444075        1.9912287161        0.5657111800
  X        -1.9479790288        2.4747156415        0.6531233615
  X        -0.6381410269        0.8369130130       -1.4509321653
  X        -2.0986664458        1.9300909152        1.0353012145
  X         1.5835648295        3.4072038732       -0.8533909905
  X        -0.6946453647        0.7326108068       -0.9002147770
  X         2.8334203981        0.0911263755       -0.8089945151
  X        -1.7965318402        1.7394784181        0.4369819097
  X         0.9277379493        2.9785258697       -1.0155855532
  X         2.8227389007        0.8382298848       -1.0458375651
  X         1.3657312656        2.8817365217       -0.5031217971
  X        -0.0362645156        0.6949258690       -1.1484167825
  X         2.2497437953        0.4791534509       -0.9061567055
  X         1.0721183851        3.3131589558       -0.4619021713
  X         0.9552588820        0.7133591794        3.4669465914
  X         2.5831929303        0.6133117176       -0.4824805616
  X         1.0341843798        0.1524018176        3.0740591236
  X         2.6951219166        2.5645087189        1.8835152518
  X         0.5770710798        0.6515270127        3.0823328034
  X         2.8411639290        2.0389346937        1.4769634556
  X         2.2703634677        2.5653168413        1.3637990917
  X         1.1448934147        0.9116827795        2.8312710609
  X         2.3182495508        2.1575846495        1.8861385040
