     224
 Particles+Wannier centers. Iteration:1_2550
  O         1.1885637549       -0.0566918515        2.5653620613
  H         2.0531937829        0.4066267001        2.4015681236
  H         0.6106543503        0.1156916378        1.7792413181
  O         1.0278966455        0.5674676998       -4.8608695979
  H         0.9922790721        0.1999880117        4.3117994325
  H         0.9792816043        1.5135447545       -4.8826506680
  O        -3.6477093034       -4.3897817165       -4.9567508279
  H        -4.4432140179       -4.6089545057        4.6455181980
  H        -3.6074129947       -3.4187451476       -4.9562048167
  O        -4.0531983694       -0.7584054725        2.0937558304
  H        -3.1681478157       -0.6770267534        1.5833364036
  H        -4.1944312903        0.0536571137        2.6090131477
  O         0.4973095227        3.4329381198       -4.0632574529
  H         1.3252438521        3.9964164026       -3.9650071513
  H        -0.0332204976        3.9067788584       -4.7785207454
  O         0.3870677332       -2.5820476868        3.8387204995
  H        -0.0919893898       -2.1119332062        3.0552816681
  H         0.2028520360       -3.5116226528        3.7052931950
  O        -3.6486283749       -4.0509385555        1.3080710429
  H        -4.4895007733       -3.9682593670        1.8336850185
  H        -3.9755597247       -3.9653828846        0.3616575702
  O         0.3965610459        0.3748078385        0.0022796910
  H         0.9171287943        1.1684663441       -0.2802658991
  H         0.8507550643       -0.4037512662       -0.3884147218
  O        -1.1284025736        4.9083152761        4.0509711360
  H        -1.4151404104        4.4170082123        3.2242601893
  H        -1.9139576354       -4.7205804338        4.5011502751
  O         3.1518284262       -3.0791517939       -4.7800814605
  H         2.3334369382       -2.9763724619        4.6959932883
  H         3.4276700126       -2.1785491349       -4.5336381045
  O        -1.2402636035       -2.3080807383        1.7060125529
  H        -2.0699268146       -2.7274799914        1.8332765298
  H        -0.8020025457       -2.6373280847        0.8898180367
  O         1.9481168184       -2.8186934081        0.8055857750
  H         2.8964856186       -2.5890476192        0.8729472188
  H         1.5288972279       -2.4958125897        1.5998852486
  O        -1.9554951205        1.1357499322        4.3275676593
  H        -1.6474301518        0.2342020709        4.2478325425
  H        -1.4513948501        1.6880781765        3.6631457140
  O        -3.5743950720        0.9859121407       -2.7428330109
  H        -3.6029278521        1.0746711470       -3.6991673389
  H        -2.6485066107        1.0993950098       -2.5862082310
  O        -4.6926081898        1.4241451994        3.8670569630
  H        -3.7211943485        1.3624999408        4.0737678470
  H        -4.9992039454        2.3319260145        4.0877274885
  O        -3.6559340856       -1.8641521048       -3.9450309238
  H        -2.6070076994       -1.6740631540       -3.8105160674
  H        -4.0521210909       -1.0802379213       -3.5379082815
  O        -1.7730251168        1.4080757570        1.2593191669
  H        -1.7880385452        2.3858883284        1.1227824778
  H        -1.3743497642        1.0499545489        0.4224489308
  O         3.4611371786        1.9324916750        1.7439582765
  H         4.2559642957        1.9102922075        2.3404725805
  H         3.7703791939        1.8199902245        0.7616724500
  O        -3.8851638343        3.9966166246       -2.7559625735
  H        -3.0019238629        3.5760269185       -2.5450274827
  H        -3.7878340479        4.5226267119       -3.5659907778
  O         3.7576655226       -0.4420599993       -4.5147929237
  H         2.9220380209        0.0794424269       -4.6607683456
  H         4.3867355233        0.0442005821        4.9999215264
  O        -0.0413888260       -4.3255192222        0.0008699081
  H        -0.0569674735       -4.7178756252       -0.8807677101
  H         0.8666489423       -4.0273585300        0.1339688703
  O        -4.4713968818       -3.7126451963       -1.5026276005
  H        -4.1945281133       -3.0774454512       -2.2445137855
  H        -4.1923782323       -4.6111064455       -1.8154772347
  O         4.1368192871       -1.2149494766       -0.0189520746
  H         4.8668069712       -1.2091931431        0.6646063313
  H         4.6450454593       -1.1911177460       -0.9238362936
  O        -1.3011869512        2.3000679787       -2.2660941415
  H        -0.6484460797        2.0849337818       -1.5398946813
  H        -0.6025503705        2.6314923839       -2.9589761915
  O        -1.0021921410       -1.2959369853       -4.1300533183
  H        -0.5475257267       -1.8211694568       -4.7918937770
  H        -0.4308432336       -0.5118691155       -4.1358151968
  O         1.6304550794        2.7834346260       -0.9855846493
  H         2.5902106186        2.6933935828       -1.1868156406
  H         1.6069043227        3.5323659534       -0.3459934315
  O         4.4223968119        3.8682022141        3.9854661007
  H         3.9708369569        3.9727041706        4.8664069733
  H         3.7933699858        3.6151161325        3.3128058734
  O         3.2762589684        4.9635793461       -1.0613779421
  H         3.7356233493       -4.9449940976       -0.2490555966
  H         3.5379984504       -4.3443775706       -1.5134808414
  O         4.5469282049       -3.0153833645        2.7399660393
  H        -4.9924139963       -2.1717428374        2.8942804056
  H         4.3199587015       -3.4879631505        3.6241401088
  O         4.1304255928        1.8419365985       -1.2738311014
  H         4.3149104908        0.9006500290       -1.1889849420
  H         4.9891924228        2.2482992569       -1.5693844912
  O         3.2346506502        4.4092812307       -3.9774164990
  H         3.5284649568        4.1020768886       -3.1068529192
  H         3.3632725442       -4.6816580919       -3.9735634414
  O        -1.7795785922        4.2127039171        1.4368295184
  H        -1.0912044462        4.6535034691        0.8721209233
  H        -2.6008012025        4.7607845500        1.4675351458
  X        -3.6937790537       -4.4971216893       -4.6523118659
  X        -3.6371626069       -3.8916409108       -4.9613969451
  X        -3.3864692414       -4.4941146993        4.9771416359
  X        -3.7356748692       -2.1100910460       -3.7467620073
  X        -4.0684448431       -4.4915982833        4.8761499943
  X        -4.3155412558       -3.3908161236       -1.8788010334
  X        -3.7163241919       -1.8901026174       -4.2545734393
  X        -3.8210278263        4.2497932780       -3.1799130620
  X        -3.1604034572       -1.7719708854       -3.8734932245
  X        -4.3219961512       -4.1589944379       -1.6674929883
  X        -3.8654522022       -1.4470863241       -3.7430485862
  X        -4.7839304559       -3.7152912460       -1.5126727620
  X        -3.9326127564        4.2286821606       -2.5226536745
  X        -4.0944280532        3.7767498473       -2.7921048364
  X        -4.3211530711       -3.6482263829       -1.2174514984
  X        -3.4228496878        3.7914989705       -2.6650642335
  X         3.3832202617       -3.1866189628       -4.9752833789
  X         3.3101410210        4.9051429064       -3.9575982006
  X         3.0796268273       -3.2743611276       -4.5189261885
  X         3.2724308809       -2.6256812432       -4.6508803065
  X        -1.5361424070       -4.9618397787        4.2612699185
  X        -0.9674807920       -1.4292628792       -3.8710842134
  X         3.4354135174        4.2769005093       -4.2361667554
  X         4.4544254964       -3.2443777123        3.2033960687
  X        -3.8198174962       -4.0125335827        0.8262601841
  X        -4.0700978389       -4.0278021299        1.5628774088
  X         3.3963494055        4.2535415348       -3.5251445683
  X        -3.5865246764        1.0372801024       -3.2589664596
  X         2.7307278053       -3.0196245506        5.0135186548
  X        -3.4771231369       -3.7939120767        1.3711087935
  X        -3.5061294676       -4.3602830092        1.3436717005
  X         4.5546397003        4.1479605486        3.9146512557
  X        -3.6554516830        0.6801756394       -2.6900600786
  X        -0.7752788626       -1.5685999390       -4.4759537519
  X         4.7488184834       -3.2312846532        2.5574176806
  X         2.9145828131        4.3623404917       -3.9893169345
  X        -1.3201011894       -1.2379078988       -4.2196437455
  X         4.8282043287       -2.5953689427        2.8509952339
  X        -3.7283620937        1.2221247394       -2.6155092031
  X        -1.0067591426        4.6892997323        4.2724051883
  X         3.4034083749       -4.7147570146       -1.3068374743
  X         3.7111363297       -0.7575014794       -4.6155620742
  X        -0.9299502384       -4.9665012789        3.9514583505
  X        -3.0916568410        1.0342820314       -2.6658462641
  X         4.1836209409        3.9088457588        4.3958075212
  X         4.6185716002        3.5925873334        4.0110333224
  X         4.2828449050       -2.9285760516        2.6262510930
  X        -0.7265322280       -0.8828689066       -4.1345104580
  X         3.8473471369       -0.3879385389       -4.2303703158
  X        -1.2992223844        4.6611208549        3.6494594688
  X         4.0837139105       -0.2003639987       -4.8251641530
  X         3.4139211091        4.7234442898       -1.2030623999
  X         3.5233758883       -5.0398582827       -0.6213278448
  X         0.2315723456       -2.4911840352        4.1140650878
  X        -4.2061341815        1.4104927890        3.9735360545
  X         0.2334029565        3.6796639131       -4.4229493194
  X        -1.4387937470        2.0180996781       -2.3594006884
  X        -4.0431493196       -1.0079891630        2.2997428357
  X        -1.6694856207       -2.5479576019        1.7631398389
  X         4.0698163858        3.7449788342        3.6394912782
  X        -1.8777052331        1.2246227773        4.6064044761
  X        -4.8310732289        1.8761792343        3.9794887924
  X        -2.1841478465        4.4864631353        1.4296122138
  X         0.9072814563        3.7292610789       -4.0068687703
  X         3.3333123798       -0.1755245112       -4.5969746571
  X         4.4130717832       -1.2029095429       -0.4910809936
  X         0.2851053091       -3.0717814954        3.7590463454
  X         2.9695634450        4.9723676134       -0.9999839870
  X        -4.8440297876        1.2115291258        4.0605325869
  X         0.7077220571       -2.5498267874        3.8235346738
  X         0.3148883906        3.4132566823       -3.7844666341
  X        -1.4811500130        2.5510683744       -2.1819438458
  X        -0.0414465910       -4.5277004356       -0.4750657529
  X        -4.2822137195       -0.7714395523        1.8662971776
  X        -0.9678661684        2.4516769873       -2.6119050360
  X        -1.7871885919        0.6594037742        4.2642433740
  X        -3.5969275799       -0.7090436522        1.8469881419
  X         4.5745668701        2.0434289738       -1.4221456232
  X        -2.2858295172        1.1461230686        4.2405903288
  X        -1.0371193924       -2.3581565049        1.9642268301
  X        -1.6662850785        4.2237704667        1.7498215138
  X        -4.7245100124        1.3832154683        3.5440637084
  X         0.5939449385        3.1626079011       -4.1932331223
  X         4.5190835035       -1.2159288061        0.3160787168
  X        -0.2131119477       -4.0646879003       -0.0047708209
  X        -1.0290345453       -2.4918811057        1.2806770929
  X         0.1623672039       -2.3557857661        3.4474526680
  X        -4.1086407171       -0.3320158027        2.3504006446
  X        -1.8387844009        3.9072737649        1.3148541019
  X         3.9865300680       -1.4894802295       -0.0039958696
  X         0.4240464527       -4.1987787891        0.0604410282
  X        -1.3131296635       -2.0187043028        1.6490378956
  X        -1.6862642227        1.4115421526        3.9796284601
  X         4.2319518667        1.3428554882       -1.2431183081
  X        -0.9691546943        2.1915902083       -1.8759886137
  X        -0.1263103865       -4.5698087991        0.2087696793
  X        -1.4464233187        4.4463188402        1.1458053766
  X         3.9000887328        1.9003230370       -1.4804896312
  X         3.9974787880       -0.9413432235       -0.0022069613
  X         2.4363751298       -2.7097491440        0.8574900760
  X         0.7751363490        0.4499151304       -4.6911884695
  X         1.8327990416       -2.6516218271        0.5786383011
  X         4.0780575229        1.9342050034       -0.9675452151
  X         1.8988006375       -3.1446271474        0.7888174040
  X         1.3308400920        0.5016977779       -4.7653319346
  X         0.9956994308        1.0669227292       -4.8981228334
  X         1.7363239970       -2.6489376380        1.2371662504
  X         0.9993875059        0.4049521559        4.7691486773
  X         1.4849097363        2.8781736791       -1.2338880473
  X        -2.0682706761        1.3088628242        1.2719404247
  X        -1.7780974727        1.9046241260        1.1748004325
  X         2.1140001061        2.7463735804       -1.0806326928
  X        -1.5712012136        1.2338637290        0.8138438078
  X         1.6202532280        3.1753698057       -0.6399358425
  X         3.8879131902        1.9186582237        2.0336228837
  X        -1.5707916835        1.3523074005        1.4892010272
  X         3.6388767895        1.8732999276        1.2555551673
  X         3.2803110892        1.6791748873        1.8226747719
  X         1.5233488005        2.4960931335       -0.8272119221
  X         1.2474496208       -0.3538995147        2.5472191047
  X         0.6396440105       -0.0292197486       -0.2153068402
  X         3.3528283863        2.2227818781        1.7707626429
  X         0.1001608804        0.4038063996       -0.1199187123
  X         1.0625706137        0.0587437880        2.8608684720
  X         0.8972541694        0.0524540910        2.1777382901
  X         0.4312833034        0.3437659780        0.3250974197
  X         1.6304005303        0.1878547345        2.4692204417
  X         0.6687425368        0.7679967598       -0.1465914789
