     224
 Particles+Wannier centers. Iteration:1_1600
  O         0.9609528461        0.0199520242        2.5665031833
  H         1.2223387970        0.6617968123        1.8850046569
  H         0.0543761787       -0.3324319777        2.2223936450
  O         0.9183458128        0.0202723061       -4.7885843112
  H         1.2557793256        0.0521585792        4.3578008672
  H         0.8026335599        0.9756950726       -4.6185040135
  O        -4.0904804281        4.7753190582       -4.7478084763
  H        -4.8280076790        4.5484850183        4.7712585486
  H        -4.2004942375       -4.3863068984       -4.5666903077
  O        -3.5350027555       -0.6121464062        1.4104615177
  H        -3.0165231475        0.1992625683        1.1984662799
  H        -4.1309210253       -0.2483832871        2.0611617828
  O         0.5854316350        2.7767134936       -4.6181145870
  H         1.3601084003        3.2704726629       -4.3331071786
  H         0.0502389853        3.2201632756        4.7553855352
  O        -0.0319348904       -2.7292734473        4.6117569217
  H        -0.2734432375       -2.2484014856        3.7773597411
  H        -0.3092090131       -3.6677756815        4.4007083466
  O        -3.8272794718       -4.1924212575        1.5791355347
  H        -4.6339450848       -3.9855820336        2.1876820610
  H        -3.6178488559       -3.3659753864        1.1466694482
  O         0.3118067908        0.5349466988       -0.9605848493
  H         1.2140022682        0.9332633969       -1.0046780694
  H         0.2798014778       -0.3421096994       -1.4061996041
  O        -0.8808856366        4.5372642960        4.1462912728
  H        -0.9040157083        4.3678197065        3.1315683322
  H        -1.7633535371        4.1452398770        4.3404871341
  O         2.8733266961       -3.0535917010        4.9837942642
  H         1.9391054581       -2.7967506173        5.0291170606
  H         3.3409788612       -2.2746271100       -4.6579154641
  O        -1.0694500366       -1.9165954018        2.2089813157
  H        -1.9814180372       -1.5071281788        2.1444877332
  H        -0.9694082803       -2.7736658453        1.8502694023
  O         2.1700571697       -2.6808694702        0.4231754888
  H         2.2198871964       -1.7348046420        0.1234633588
  H         3.0162422550       -2.8480021710        0.9825008605
  O        -1.7258699341        1.2810884374        4.1973234854
  H        -1.8782602717        1.4730601639        3.2468606894
  H        -0.8594336386        0.8277455628        4.2374114997
  O        -3.1491416146        0.1226340075       -3.3795390375
  H        -3.7534881071        0.7534105005       -2.9682398164
  H        -2.4416983875        0.6624954446       -3.7660700086
  O        -4.5761375049        0.6072733562        3.7476294136
  H        -3.6983380777        0.5753907906        4.1656386286
  H        -4.9586637475        1.5034948548        3.8270150496
  O        -3.1541723595       -2.3036893524       -4.4513770175
  H        -2.2462399315       -2.3161242583       -4.7554658812
  H        -3.3661511569       -1.4120400505       -4.1064714159
  O        -1.8122734048        1.2566623083        0.9836326868
  H        -1.6712692504        2.2769536169        1.0043732521
  H        -1.1632435262        0.9502514402        0.3361403369
  O         2.3930772411        2.1537102122        1.2108875922
  H         3.0617265142        1.8829266450        0.5057315546
  H         1.7919942848        2.7141097914        0.6713387355
  O        -4.4641543799        3.0649276041       -2.3316153022
  H        -3.5093934531        2.8964703484       -2.1502012800
  H        -4.4450532711        3.5257403831       -3.2012779435
  O         3.7681290325       -0.8850750963       -4.0397407149
  H         2.8702785526       -0.5607687626       -4.0909031970
  H         4.3498832814       -0.2764061942       -4.6026374769
  O        -0.3595476753       -3.9530299391        0.2925366706
  H        -0.8510938059       -3.5071668777       -0.4126862647
  H         0.6028650343       -3.7607216080        0.2047514684
  O        -3.0541440634       -3.2227748227       -1.8153415065
  H        -3.1855891203       -3.0153992744       -2.8115379119
  H        -3.3373518541       -4.1213663821       -1.7316940940
  O        -4.9818735219       -1.7321836726       -0.6760722861
  H        -4.5925046258       -1.3703076576        0.1586850708
  H        -4.1180770847       -2.0896007856       -0.9889557211
  O        -1.2393427724        2.7068654610       -2.2578231730
  H        -0.9876240438        1.7954393768       -2.0912199329
  H        -0.7167187947        2.8039026466       -3.1226541384
  O        -0.0665845710       -1.9357801479       -2.3336071203
  H         0.3480659808       -1.7972839289       -3.2090740079
  H        -1.0353291546       -2.0615713252       -2.4779551428
  O         0.9627490294        3.3869369674       -0.6856303835
  H         1.4913312555        4.0379157395       -1.1708614954
  H         0.0736021024        3.2972719921       -1.1438388256
  O         3.8442659735        3.3378291300        3.4243334348
  H         3.1236008839        3.5259288443        4.0764744870
  H         3.3956943209        2.9353776185        2.6456893043
  O         3.4472200965       -4.9588515097       -1.5661275572
  H         4.4492757608        4.9048826995       -1.3927735248
  H         3.3568082313       -4.0318734441       -1.3209848592
  O         4.0912078286       -2.7054974848        2.6379202274
  H         4.7370520770       -2.0542213192        2.6890853771
  H         3.6443910557       -2.8534299082        3.4937656739
  O         3.9104252053        0.9455855197       -1.0809459151
  H         4.2001592266       -0.0072105205       -1.2239934557
  H         4.4428206006        1.5893636048       -1.6125739459
  O         2.6590425128        4.3936512737       -4.0588759799
  H         3.3037742593        4.5973202788       -3.3117001992
  H         2.5603324550       -4.8046468421       -4.4719636590
  O        -1.4452820069        3.9821010084        1.5028369107
  H        -0.9310266787        4.5762516460        0.9051487595
  H        -2.3389592487        4.4092425568        1.4678618358
  X        -4.1613579726       -4.8269700868       -4.6552995299
  X        -3.1592181680       -2.5004900977       -4.1705984932
  X        -3.1270535041       -3.1339216054       -2.3060896487
  X        -3.3351321765       -2.3787119293       -4.6817842424
  X        -4.1460338326        4.6125790918       -4.4637499202
  X        -3.8254572053        4.7382629414       -4.9005340099
  X        -3.2466343437       -1.8471201464       -4.2936037948
  X        -3.2121689591       -3.7106366238       -1.7769514409
  X        -2.6719980862       -2.2894211005       -4.6041953333
  X        -3.2559619074       -3.0296603388       -1.6385400874
  X        -4.4822365797        4.6698245764        5.0454149859
  X        -2.7456664135       -3.2220388811       -1.7658923669
  X        -4.4494420933        3.2910303513       -2.7840687565
  X        -3.0276406178       -0.0278216481       -3.1576726276
  X         2.9013665749       -3.3428999639       -4.9547559728
  X        -4.5581046251        3.2712500883       -2.1250195470
  X         3.9638322769        5.0374956914       -1.4665177968
  X        -3.2958523678       -0.0439812138       -3.6174650086
  X        -4.2236215117       -4.0807725765        1.8851434440
  X        -3.9631589301        2.9798063547       -2.2467479074
  X        -4.5443024466       -1.9052731753       -0.8453200809
  X         3.0970156300       -2.6902044203       -4.8810008401
  X         2.6010056447        4.8531897900       -4.2624455785
  X        -3.4684625264        0.4647424874       -3.1745951521
  X         3.7523304597       -1.1977762240       -4.1946335589
  X        -3.7235544515       -3.7365774576        1.3565155513
  X         2.9687930979       -3.0348598323        4.6599623695
  X        -3.9213398747       -4.3763383903        1.3585081687
  X        -2.7832452931        0.4164831759       -3.5798996226
  X        -3.5757324841       -4.2744924413        1.7474925928
  X        -0.2346818326       -2.6321479398        4.8350303457
  X        -4.6064431919        2.7775794415       -2.3576631183
  X         2.9895775610        4.4891169510       -3.6900353830
  X         3.4221381145       -4.9834242575       -1.8950423025
  X        -1.3491196578        4.3405941903        4.2510715319
  X        -0.5768496583       -1.9923764774       -2.4299845631
  X         2.3917225749       -2.9122315702        5.0108422614
  X         3.4130380096       -4.4685602053       -1.4405744903
  X         2.7978011965        4.2146829153       -4.2834683431
  X         3.8585078920       -0.8620285881       -3.7538872039
  X         4.9357552937       -1.9719201313       -0.6159763735
  X         4.0517863588       -0.5650373144       -4.3360446254
  X         4.2733531580       -2.9741526328        2.5907849826
  X         5.0296407452       -1.4785023311       -0.8521297114
  X        -0.1705893449       -3.2125795987        4.4931472719
  X         0.2904833168       -2.7248897970        4.6649211006
  X        -0.8701403300        4.8539491365        4.2127326245
  X         0.1325266906       -1.8673172454       -2.7978408854
  X         2.3752634585        4.2901571376       -3.9426855043
  X         3.2701405510        4.9682670720       -1.3816306232
  X         3.8807558467       -2.7517430243        3.0708186862
  X         0.0313061748       -2.1973664011       -2.2214490189
  X        -0.6605002191        4.3170054078        4.2703779127
  X         3.3032571745       -0.7000380774       -4.0765864412
  X        -4.8032136800       -1.5523138711       -0.2386541509
  X         4.4321566276       -2.3374332101        2.6853605927
  X        -1.5604636073        2.7309001978       -2.3034456626
  X        -0.1452959676       -2.4900892789        4.1877426285
  X        -4.1192470602        0.6138964898        3.9671167251
  X        -0.0295782660       -1.6507333000       -2.1631414602
  X         3.8846848091       -2.6339848908        2.4055464384
  X        -0.8869183569        4.4633438731        3.6472787635
  X        -4.7592048724        0.4259491945        3.9229617561
  X        -0.6042495300       -3.7164389084       -0.0909969782
  X        -0.9904179222        2.7611015965       -2.6974700826
  X        -4.7486790427        1.0833895535        3.7964316537
  X        -1.0751632238        2.8778259540       -2.0306859876
  X         3.9673904700        3.6111378676        3.3552438527
  X        -1.9581398727        1.0743559023        4.2856285663
  X        -3.3282083563       -0.8123145676        1.5704791100
  X        -0.9978821417       -1.9478284904        2.5300581700
  X        -4.5378467847        0.5376997531        3.4340897876
  X        -1.9073380127        4.1975127788        1.4788020247
  X        -0.4501652684       -3.8080948207        0.5612905460
  X        -3.8537498593       -0.4299933542        1.7481247286
  X         0.3800477681        2.7951639887       -4.3616905656
  X        -0.4226620540       -4.2825991185        0.2778838002
  X        -1.6974274632        1.5493059320        4.3385309650
  X        -1.1212303878        2.2223834322       -2.1742790151
  X        -1.5454413102       -1.7460642623        2.1701583952
  X         3.4541148614        3.4251055501        3.7544409056
  X        -1.0509817573       -2.3675424088        2.0132428968
  X         4.0301251992        3.1057759143        3.5561954009
  X        -3.7077526598       -0.7284104529        1.1504582101
  X         0.9786609692        3.0397296189       -4.5012525281
  X         0.1235035173       -3.8577376376        0.2238957604
  X         4.2026446995        1.2556828979       -1.3690132884
  X        -1.7955943677        1.3757859454        3.6957990337
  X         0.3524840622        3.0017311663       -4.9931630248
  X        -3.2915633379       -0.2127968158        1.2973530665
  X         1.1459727190       -0.1003420484       -4.5929873784
  X        -1.3321494649        4.0346208016        1.8177821942
  X         2.1966232110       -2.8527156570        0.1598684954
  X        -1.1909608592        4.2678064709        1.1973643628
  X         4.0747307040        0.4704849213       -1.1689614473
  X        -1.2769643733        1.0441119179        4.2028430839
  X         2.5975782621       -2.7534387026        0.6994485521
  X         0.6715974720        2.4625585098       -4.6979273381
  X         0.6333470553       -0.0965291669       -4.8045305836
  X        -0.8850751041       -1.7193765279        2.0512742250
  X         0.8649759857        0.5079379952       -4.6989939550
  X         3.6101110336        3.1414357679        3.0296954767
  X         1.9140293778       -2.7215751893        0.5965817866
  X         3.6191956293        0.9669904944       -1.1842121345
  X        -1.4705315866        3.6607059996        1.3835332227
  X         1.0968631865        0.0384850621        4.8379473834
  X         1.2241401015        3.7374580367       -0.9501416767
  X         2.2053345172       -2.1767296462        0.2751708607
  X         3.9575139711        1.0203172930       -0.7730292111
  X         0.5140062779        3.3601110957       -0.9143511307
  X        -2.1252867976        1.1629030495        0.8991676168
  X         1.1056075004        3.1165582600       -0.7247182738
  X         0.3234117455        0.0865367186       -1.1831577301
  X        -1.7537039404        1.7577560209        0.9767419784
  X        -1.7172699164        1.1633481327        1.2628353836
  X         0.1231380884        0.7214557579       -1.1366630539
  X         0.9340174598        3.4811573695       -0.3832226457
  X        -1.4796538641        1.0999152566        0.6449066682
  X         0.2312818516        0.5018110898       -0.6543554199
  X         1.1452900244       -0.2107001568        2.5439768457
  X         0.7898923468        0.7192275799       -0.9922531118
  X         0.4926984944       -0.1401510923        2.3947780075
  X         0.9215444717        0.1659834272        2.8610873939
  X         2.7364156120        2.0232987991        0.8513801035
  X         2.5480758866        2.3268818617        1.4493520243
  X         2.0940297113        2.4457730249        0.9470435937
  X         1.0849059648        0.3584868777        2.2137858171
  X         2.2278767072        1.8873283723        1.2837657659
