     224
 Particles+Wannier centers. Iteration:1_2250
  O         1.3726347819       -0.1717381562        3.0261169475
  H         2.2106866646        0.0190898781        2.6323926915
  H         0.7717103082       -0.2873018290        2.2241826880
  O         1.3071646132        0.9075676706       -4.6669772845
  H         0.9698550171        0.8521602570        4.4699569177
  H         1.3144194066        1.8617334566       -4.4619031118
  O        -3.4210264900       -4.7672348052       -4.9557260045
  H        -4.2090336365       -4.9125892512        4.6017851396
  H        -3.5049229945       -3.7858073849       -4.7706834856
  O        -4.2323246284       -0.4858721945        1.3537874171
  H        -3.5880049010        0.2248732221        1.2958047285
  H        -4.8253510126       -0.1442569145        2.1055345200
  O         0.4940171631        3.5571159647       -3.9027403412
  H         1.3701222731        3.9570213051       -3.6928057944
  H         0.1267757904        4.1914045770       -4.5830863756
  O         0.2475666530       -2.8384039739        4.2733417231
  H         0.0771970512       -2.3422178595        3.4534826519
  H        -0.4178236466       -3.5264501194        4.1843216186
  O        -4.1307192676       -4.6304667326        0.9821811857
  H        -4.5360545399       -4.0285619213        1.6991762583
  H        -3.9042134220       -4.0872932142        0.1971855215
  O         0.3449756495        0.5320507093       -0.2278037234
  H         0.8351920021        1.3866405203       -0.3711406879
  H         0.7273237447       -0.1099073349       -0.8732902151
  O        -0.9450234000        4.8063447688        4.0116209347
  H        -1.0452238994        4.5079593785        3.0564879111
  H        -1.9013814479        4.8775899857        4.2943133517
  O         2.9147080339       -3.1887903234        4.9378956584
  H         1.8892821168       -3.1575908269        4.7704808459
  H         3.1202082169       -2.2402713255       -4.9351982634
  O        -1.1573070767       -1.8179683643        1.8522060188
  H        -2.0922150167       -1.7245389914        1.7349604768
  H        -1.0581881687       -2.5996180691        1.2226230834
  O         2.1360230368       -2.5080086546        0.7541761511
  H         2.7063653600       -1.8276553193        0.2766816296
  H         2.5800997685       -2.6838282532        1.5884361128
  O        -1.3574337327        1.4700645542        4.2260653220
  H        -1.4293704063        1.5392617224        3.2743318916
  H        -1.3044130871        2.3730232927        4.5701291321
  O        -4.0303609861        0.6289836810       -3.2764420119
  H        -4.0892347510        0.9678855520       -4.2001764445
  H        -3.1163602538        0.9343830468       -2.9105621977
  O        -4.3358411581        1.0868895309        4.1127493760
  H        -3.3360233072        1.0856678356        4.0663309752
  H        -4.6043588306        2.0513140873        4.2431646625
  O        -3.5656978814       -2.1876503316       -4.2459399517
  H        -2.6642523355       -1.9415623530       -4.0906217065
  H        -3.9856706728       -1.2868677058       -4.1768349621
  O        -1.9855428011        1.1893716007        1.0437018930
  H        -1.8104351903        2.1229702751        1.2117050033
  H        -1.1254061847        0.8568491718        0.6571643300
  O         3.2885498822        1.9617608576        1.3804792276
  H         3.7263673352        2.1624071049        0.5421945766
  H         2.4868972317        2.5302190380        1.2841461710
  O        -3.6966347266        4.0154816387       -2.3648347700
  H        -3.2933418678        3.1565521183       -2.1374128783
  H        -3.3161430446        4.2199286196       -3.2179092767
  O         3.5574580452       -0.4953835354       -4.8649047477
  H         2.7730830381        0.0792524300       -4.7891720376
  H         4.3206961438       -0.0669438057        4.7907301819
  O         0.1567062420       -4.1978681068       -0.0632212993
  H        -0.0601019755       -3.7020983619       -0.9148578455
  H         0.8683164174       -3.6267261133        0.4167428625
  O        -4.2456687761       -3.3806493492       -1.6457243718
  H        -3.8662576498       -2.9137641029       -2.4281968334
  H        -4.1112339312       -4.3023242257       -1.9598514322
  O         3.9275524138       -1.1417856591       -0.8181023881
  H         4.6438135899       -0.7589310580       -0.2130777611
  H         4.4291915274       -1.9081686825       -1.2918223767
  O        -1.6862681285        2.0240273800       -2.5159568596
  H        -1.2171979436        1.2881431470       -2.0126173613
  H        -1.0128718504        2.6293069619       -2.9122946313
  O        -0.7082457825       -1.1324882963       -3.7562071109
  H        -0.4625261408       -1.6936294443       -4.4767091696
  H        -0.5250340647       -0.2384089747       -4.0259561639
  O         1.4059760050        3.0749299641       -0.8520541206
  H         2.3218709944        3.3369767872       -0.8498160466
  H         0.9692720276        3.8068287493       -0.4118473378
  O         4.6167193528        3.5288328478        4.1740497805
  H         3.9766511065        3.6144323907        4.9431523546
  H         4.0977090949        3.2369527341        3.4060833732
  O         3.7809017584        4.5143645069       -1.1460522530
  H         4.6820956808        4.2344312523       -0.8301052710
  H         3.5427570695       -4.6472790111       -0.7635319365
  O         4.7959141793       -3.0192585588        3.0341701036
  H        -4.5252040181       -2.5708833386        3.5558391020
  H         4.0293170202       -3.1218967497        3.6894418122
  O         4.0581168742        1.7521086796       -1.3014757777
  H         3.8042432830        0.8129635647       -1.3687851308
  H         4.9101709719        1.8779485742       -1.8195055099
  O         3.2383201205        4.4889941006       -3.7853814986
  H         3.6856764919        4.5665997498       -2.9247070445
  H         3.1493941723       -4.6985120465       -4.1973664001
  O        -1.5912254138        4.2617477877        1.3799139278
  H        -1.0220551571        4.9305302705        0.9094751684
  H        -2.5189779952        4.6708013086        1.3433244991
  X        -3.4569467222       -4.2753495408       -4.8670573717
  X        -3.5987177923       -2.3383400493       -4.5356476256
  X        -3.4523913179       -4.9232954675       -4.6791534783
  X        -3.8326088220       -4.8386128356        4.8625125223
  X        -4.1877529200       -3.8535054858       -1.8076328273
  X        -3.6504281319       -2.3486358834       -3.9827865694
  X        -3.0902081985       -2.0622911514       -4.1748663578
  X        -3.1479502402       -4.8219086008        4.9525561079
  X        -4.0385687584       -3.1354663540       -2.0386583309
  X        -3.7841471170       -1.7369643385       -4.2292034753
  X        -4.5571929843       -3.3084718687       -1.6415632740
  X        -3.4889244997        4.1106962827       -2.8121508196
  X        -4.0652325086       -3.3479686871       -1.3826675180
  X        -3.6099324671        4.2453303839       -2.1616001181
  X        -3.9938821162        3.9700391316       -2.4102693680
  X         3.4748958781        4.5439925389       -3.3588478562
  X        -3.4883865563        3.5720479821       -2.2428616423
  X        -4.9037993031       -2.7865783828        3.3213109726
  X         2.9818813901       -3.4082927204       -4.9122615750
  X         3.2085028727        4.9542058284       -3.9759479750
  X        -4.0219981850        0.3071259708       -3.3120489271
  X         3.4136134672        4.2964270723       -4.0044239434
  X         4.9142052844       -3.3133940449        2.9280348957
  X        -4.0168427469       -4.3302109967        0.5849242073
  X         4.7116766129       -2.8193138348        2.8291787096
  X         3.0718494307       -3.2296166652        4.6350486464
  X        -4.0420842453        0.8180216731       -3.7447967005
  X         3.0097551446       -2.7236848085       -5.0308270603
  X        -1.4283867082        4.8281364491        4.1470426436
  X        -3.5624868678        0.7819365972       -3.1044831652
  X        -4.3238219099       -4.3140509245        1.3268771510
  X        -4.2487783065        0.7709220038       -3.1024308958
  X         4.7372237695        3.8149886579        4.1206872460
  X        -1.0336780879       -1.1676404516       -3.7403816325
  X        -3.8375794142       -4.7507546333        1.0970662380
  X         2.9290614812        4.4015130201       -3.7233769623
  X         2.4159367227       -3.1733874398        4.8567054950
  X         4.4346779157       -3.0744191602        3.3634967455
  X         4.2467810907        4.3914939885       -0.9685895080
  X        -4.3441004754       -4.8233602367        0.8906859939
  X        -0.0919174252       -3.1945078133        4.2280491038
  X        -0.5719334158       -1.4122289066       -4.1418547896
  X         4.2859750527        3.5555159473        4.5444305332
  X        -0.8439475342       -4.9862857884        4.0097204726
  X         4.8270614913        3.2615385179        4.2344060113
  X        -0.5375089380       -1.1978168698       -3.5130665907
  X        -0.7913099442        4.5856450088        4.2006363021
  X         3.6520074092       -0.5209602314       -4.5914657924
  X         3.5597848350        4.3107617528       -1.0246348587
  X        -4.4039763764        0.9418153215        4.3984021665
  X         3.6795057600        4.9999842602       -0.9390916739
  X         0.1473126045       -2.6471260064        4.5117750160
  X        -1.8541069840        1.8754276215       -2.7451893368
  X         4.1815508655       -1.5292358755       -1.0565855886
  X         0.5604439027       -2.9658793385        4.2875443846
  X         0.3114837154        3.8881656920       -4.2504722716
  X        -4.4493960335        1.5664669321        4.1721574441
  X        -0.6144317821       -0.6629001787       -3.9120506943
  X         3.9375297912       -0.2607781845        4.9859711921
  X        -0.9863045847        4.6513468132        3.5394133664
  X        -3.8229618223        1.0948807620        4.0851492838
  X         3.4782483991       -0.7866568575       -5.0141123633
  X        -1.8531204943        2.1880648200       -2.3080003106
  X         4.3290250675        3.3839517667        3.7734286282
  X         0.9313633031        3.7686566669       -3.7886857129
  X        -1.3351136115        2.3179829689       -2.7175757145
  X         3.7994492192        4.5533380662       -1.4711470745
  X         0.2926157631        3.5490214425       -3.6508707652
  X         0.1706952751       -2.5867420524        3.8438917216
  X        -4.4550125583        0.9750681306        3.8518464177
  X        -2.0511982877        4.4681811776        1.3570025581
  X         0.0511651960       -3.9301453050       -0.5070156400
  X         3.1806646384       -0.1920851152       -4.8552078448
  X         3.8525295974       -0.9176784792       -1.0263961624
  X         0.5616015316        3.2864932516       -4.0576241020
  X         4.2930958138       -0.9553082871       -0.5164051886
  X        -4.0831286110       -0.7389342435        1.4571469234
  X        -1.6584880472       -1.7681498876        1.7994680175
  X         4.5057841885        1.8035624732       -1.5629377214
  X        -1.4265537606        1.6515689302       -2.2610299369
  X        -1.6481315004        1.3638483120        4.3077276982
  X        -0.1218775166       -4.2005255297        0.1215829490
  X        -1.3102198169        4.6011249696        1.1364501830
  X        -1.4947278005        4.2814637756        1.7075302405
  X        -4.5415876352       -0.3086304426        1.7434312819
  X        -1.1013782047       -2.2292201019        1.5241116838
  X        -1.3311421174        1.9581095895        4.3907780233
  X         0.4983789475       -3.9139103877        0.1663018410
  X        -1.0942598150       -1.9241357648        2.1460000270
  X         3.6866899652       -1.2801156365       -0.6143142469
  X        -3.9061864569       -0.1126726357        1.3261069025
  X         0.2780758842       -4.4707076980       -0.1377186993
  X        -4.4116413005       -0.4921009227        1.0786257968
  X        -1.1048634410        1.3244013412        4.2931063698
  X         4.1133240700        1.8146425360       -0.9807505991
  X         3.9431858103        1.2598097460       -1.3447136164
  X        -1.5870620771        3.9791319262        1.2351542611
  X         2.1376954130       -2.7862601489        0.5936984778
  X        -1.0213123027       -1.5777475136        1.7257007157
  X         1.6286946755        0.7843279229       -4.6706020889
  X         2.3779594217       -2.5926351456        1.2001578967
  X        -1.3880936312        1.5299753563        3.7195517317
  X         3.8459388838        1.9122972650       -1.4424588676
  X         1.0891696897        0.7808298975       -4.4870208479
  X         1.3197539423        1.4065251783       -4.5717761583
  X         1.8532407262       -2.4025684162        0.8175875787
  X         2.4134693644       -2.1708975670        0.5264638724
  X         1.1381246903        0.9006848726        4.9524167776
  X        -2.2207645856        1.1597403453        0.8481573299
  X         1.3206140314        3.0885642258       -1.1286373556
  X        -2.0127796724        1.0661375599        1.3310711616
  X        -1.8880407638        1.6836104290        1.1264507460
  X         1.8794296397        3.2089763696       -0.8321300976
  X         1.1794172330        3.4646724872       -0.6063372258
  X         1.3893621614       -0.4447884869        3.1523114814
  X        -1.5536190599        1.0294763136        0.8504448013
  X         3.5158037993        2.0732485265        0.9514066898
  X         1.3549369136        2.7887188421       -0.6724052691
  X         0.5482821060        0.1983608221       -0.5713612564
  X         1.2747712104        0.0907936326        3.1959962218
  X         3.4530686236        2.0830392074        1.6231185613
  X         1.8202691044       -0.0703613646        2.8095865847
  X         3.1950995932        1.6672976065        1.3740071083
  X         0.0315327706        0.5840972857       -0.3017060348
  X         0.4021743411        0.4339779722        0.0558051838
  X         1.0665297580       -0.2218074926        2.6034652474
  X         2.8580546397        2.2649599526        1.3286733420
  X         0.5978955612        0.9546534902       -0.3085522024
