     224
 Particles+Wannier centers. Iteration:1_2650
  O         1.2180193308       -0.0461367226        2.5893870368
  H         2.1541867720        0.1934751773        2.3696123470
  H         0.6236428831        0.2994139556        1.8950277859
  O         1.0514222418        0.5043742448       -4.7963464509
  H         1.0197240893        0.4207645576        4.3150471382
  H         0.8748430493        1.4519162297       -4.6380667675
  O        -3.8239726668       -4.4846871160       -5.0033140227
  H        -4.4347874339       -4.6502258741        4.3504172919
  H        -3.8328347906       -3.5140144042       -4.8667571346
  O        -4.1172528712       -0.6094130986        2.1978540398
  H        -3.1273238426       -0.8529671619        2.0325398291
  H        -4.2108798418        0.0836524871        2.8834046694
  O         0.4453450631        3.1753283211       -4.4011574474
  H         1.3747697349        3.4335758783       -4.2364909569
  H         0.0081384507        3.7317950396       -5.0417231903
  O         0.3154834537       -2.9537895792        3.9657680386
  H        -0.2426058306       -2.5756828979        3.1806307139
  H        -0.2169387348       -3.7349163835        4.2043718929
  O        -3.4383051018       -3.9148059674        1.2402554701
  H        -4.1982695774       -3.8318772908        1.8451067009
  H        -3.8358758839       -3.7002553074        0.3503793114
  O         0.4591352832        0.3762276182       -0.2592251449
  H         1.1101516559        1.1141920762       -0.4678148967
  H         1.0115860012       -0.4297527136       -0.2086215338
  O        -1.0371602991        4.8895096876        4.2063608601
  H        -1.1814041710        4.4021300127        3.3575070223
  H        -1.9691331449       -4.9846722134        4.5462261967
  O         3.0108611613       -2.9487766652       -4.8793903607
  H         1.9900984404       -2.8903133474       -4.9952574824
  H         3.3592230416       -2.0872564671       -4.5256977903
  O        -1.5055932070       -2.2363970500        1.7096143073
  H        -2.2085719652       -2.9125858618        1.5773999172
  H        -0.9036799932       -2.3299756447        0.9285810561
  O         1.7913881781       -2.5346470926        0.7590504740
  H         2.5991725925       -2.3115269100        0.2361633516
  H         2.1679875530       -2.4320236332        1.6334055707
  O        -2.0030772287        1.2608997066        4.1373425189
  H        -1.6426742826        0.8807617045        4.9512748935
  H        -1.7971589367        0.5769071221        3.4210473320
  O        -3.5194097607        1.0605620480       -2.8168833098
  H        -3.6783569399        1.6869034737       -3.5501163464
  H        -2.6528821503        1.4508366699       -2.4554936600
  O        -4.6413359458        1.3786700349        4.2010127024
  H        -3.6450226101        1.4336647097        4.3070063454
  H        -4.9457048985        2.3102408977        4.0006301642
  O        -3.5740661423       -1.7371518274       -3.9512471731
  H        -2.6402512944       -1.5284107585       -3.9651831056
  H        -4.0507387052       -0.9659296789       -3.6445842641
  O        -1.9102557639        1.3578155234        1.1824380889
  H        -1.7658495343        2.3165516391        1.1809751288
  H        -1.1162361713        0.9588526665        0.7344167110
  O         3.4185343684        1.8112256771        1.5874082550
  H         4.0699034253        1.4724886830        2.2353059434
  H         3.8452049209        1.7419634450        0.6899760157
  O        -3.8658138522        3.9913188398       -2.7746319458
  H        -2.9768559149        3.8193077907       -2.3963803762
  H        -3.7131460457        4.4089014110       -3.6786156915
  O         3.7326860105       -0.3213028812       -4.1880211064
  H         2.7783108518       -0.0130615017       -4.2695285168
  H         4.2852727811        0.2902029730       -4.6815831798
  O        -0.0035546927       -4.3951779792       -0.2502271898
  H         0.1659290126       -4.6785748571       -1.1592906550
  H         0.7331571302       -3.6959256693        0.0141526031
  O        -4.5124643058       -3.7958257573       -1.5359813837
  H        -4.0993337058       -3.1314940683       -2.1555298375
  H        -4.1965695962       -4.7056867432       -1.8312980374
  O         4.4267043426       -1.2874990157       -0.1540332207
  H         4.9897007799       -0.8488121033        0.5118151992
  H         4.8995550678       -2.1952463317       -0.3377832735
  O        -1.1940485460        2.7831609039       -2.1465075687
  H        -0.7646263147        2.3333662675       -1.3932050324
  H        -0.5137135871        2.7585779415       -2.8445305678
  O        -0.7842341828       -1.4923879917       -4.0142191753
  H        -0.4100314140       -1.8550205819       -4.8523491695
  H        -0.1808492322       -0.7269902995       -3.9356430755
  O         1.5201237660        2.5946467958       -0.8508434209
  H         2.3181774877        2.7495630324       -1.3223736740
  H         1.3880573280        3.3894668235       -0.3155653295
  O         4.4632464374        4.0428159614        3.7833902026
  H         3.8393682138        4.0879043385        4.5599245093
  H         3.8873364480        4.1349081868        3.0289281084
  O         3.0555732260       -4.8253935194       -0.7248693087
  H         2.9423559559       -5.0156233711        0.1986175603
  H         3.8630697272       -4.3761318374       -0.8351091135
  O         4.6098043781       -2.8940599680        2.8150121168
  H         4.8888381186       -1.9130694447        2.6398535249
  H         4.0097787198       -2.9862358012        3.5862635576
  O         4.3448767117        1.8448934303       -1.0435599909
  H         4.2003618686        0.8948632236       -1.1447152069
  H        -4.9067322429        2.0502915543       -1.5150798624
  O         2.9541501674        4.5027719626       -3.7881816526
  H         3.4765618657        4.4378806944       -2.9974099488
  H         3.1789216511       -4.6867179045       -4.0363802889
  O        -1.5765755361        4.0745333650        1.4689543988
  H        -0.8569594265        4.5920192225        0.9410294610
  H        -2.4039300426        4.5635885502        1.2481883734
  X        -3.8382333696       -3.9874886647       -4.9350251803
  X        -3.9242472542       -4.6454149391       -4.7338627790
  X        -3.5213599666       -4.5566551333        4.9905670145
  X        -3.6129851031       -1.9589698247       -3.7224893095
  X        -4.1394995019       -4.5585961546        4.7139861465
  X        -4.2961171845       -3.4626624237       -1.8587324445
  X        -3.7720090037        4.1859755224       -3.2288570201
  X        -3.6637876000       -1.8189788126       -4.2432209197
  X        -3.0986509847       -1.6114876068       -3.9546607878
  X        -4.3455367488       -4.2366648749       -1.6785190180
  X        -4.8262145310       -3.7896617281       -1.5703376844
  X        -3.8159846073       -1.3229238153       -3.7989269617
  X        -3.9876268242        4.2439815681       -2.5852834745
  X        -4.0142105690        3.7257248754       -2.7976144110
  X        -4.3997874735       -3.7290030042       -1.2222782539
  X        -3.3975452475        3.9072201897       -2.5924537971
  X         3.0729257595       -3.2000886140       -4.6707120271
  X         3.0606337126        4.9703652350       -3.9104619743
  X        -1.5113940551        4.9895175637        4.3723300865
  X         3.1646140981       -2.5153788841       -4.6908102779
  X         3.1324836833       -2.9706901561        4.9120019277
  X        -1.0988661671       -1.3913073961       -4.0659826333
  X        -3.6479692709       -3.7971591872        0.7885527890
  X         4.8855816794       -3.0660174256        2.8565431968
  X        -3.8272668896       -3.8758656789        1.5446195417
  X         3.2287981422        4.4608969860       -3.3667647938
  X        -3.5943888279        1.3889602094       -3.2153492935
  X         3.0937795660        4.3186464985       -4.0213172902
  X        -3.2070865931       -3.6785120092        1.3178069550
  X         4.1352118203        4.0678686734        4.1707393389
  X        -3.3477532926       -4.2243260496        1.2246832483
  X        -3.4802548686        0.7680635897       -2.9282917349
  X         2.4940413646       -2.9001496008       -4.9227633721
  X        -0.7202799899       -1.6868092304       -3.7969603371
  X         4.3121774114       -2.9253606790        3.2161697594
  X        -0.8880888297       -4.9202854021        4.1480270413
  X        -3.7374271887        1.1367314971       -2.6061693262
  X        -0.6026220966       -1.6719691548       -4.4469003456
  X        -0.8916036674        4.6777405144        4.4158910920
  X         4.7249545526       -2.4035705930        2.7566068068
  X         2.6458455483        4.4692466463       -3.7284685853
  X         3.8109491179       -0.2890457032       -3.8976041388
  X        -3.0733308252        1.2512739164       -2.6397810451
  X         4.6570906143        4.2999868972        3.7998938208
  X         0.0482957790       -3.3499713274        4.0848478342
  X         4.5858347427        3.7348811108        3.7800089659
  X         4.4444049979       -2.9751420827        2.5694773733
  X         3.4877846006       -4.5880295548       -0.7575628584
  X        -0.4842164261       -1.0878318460       -3.9661354747
  X         4.0066157734        0.0006816124       -4.4590634684
  X        -4.7817989266        1.2812200702        4.4740155855
  X        -1.1182968021        4.6492664554        3.7747948620
  X         3.7410218443       -0.6278262832       -4.3229338881
  X         4.6809137718       -1.7535715441       -0.2357299779
  X        -1.4479374116        2.5916486153       -2.2377104009
  X         0.2705345239       -2.7368714741        4.2162647428
  X        -4.7863333472        1.8545937961        4.0977572898
  X         0.0451468371       -2.7685087245        3.5690705863
  X        -4.1570017722        1.4226048118        4.2636713835
  X        -1.8436476524       -2.5784704413        1.6377014200
  X         4.1494457206        4.0942309874        3.3831538641
  X         2.8337570598       -4.6362828572       -0.7956839444
  X        -3.6136318141       -0.7200516485        2.1392913137
  X         3.0855989421        5.0013154621       -0.8680892793
  X         3.2566338494       -0.1511801254       -4.2380218840
  X        -2.3475100590        1.2698165591        4.1759292667
  X         0.2479719346        3.4664491808       -4.7357069936
  X         0.0992803120       -4.5390481833       -0.7355726286
  X        -1.2515269574        3.0802889501       -2.0754774116
  X        -4.6792209277        1.2009282943        3.9265641089
  X         0.6044736079       -3.0317479805        3.8852280980
  X        -0.8433405272        2.7603657506       -2.4977691049
  X         4.4433015399       -1.1252346511       -0.4167111650
  X        -2.0018172600        4.3217324480        1.3458956331
  X        -1.3232342551       -2.3135429456        1.9757947519
  X        -4.1412757993       -0.2531233196        2.5471325591
  X        -4.2772459952       -0.8834746904        2.3158706114
  X         0.9222761460        3.3255268903       -4.3347127512
  X        -1.8127545255        1.0506727547        4.5674882903
  X        -1.6490061403       -1.9464201188        1.6958090323
  X        -0.2706120663       -4.2536916465       -0.2518702876
  X         4.7197555583       -1.0711816429        0.1931131717
  X         4.7883602313        1.9404748112       -1.2783815221
  X         0.2898883103        3.2026787947       -4.1183362526
  X         3.0140149430       -4.9230230767       -0.2179901033
  X        -1.8508546890        1.5105439718        4.0757987752
  X         0.3609739799       -4.0604411531       -0.1385378888
  X        -4.2265679701       -0.4977434858        1.9223364787
  X        -1.1983802898       -2.2896817290        1.2909954787
  X         4.1413043474       -1.3655376886       -0.0228243555
  X        -1.5219467428        4.1268266154        1.7907099100
  X         0.4666622507        2.8671598953       -4.5156592644
  X        -0.9664918306        2.5511765824       -1.7485920527
  X         0.0227294619       -4.6633947706       -0.0525669165
  X        -1.2213778433        4.3306811229        1.2058897990
  X        -1.8958699016        0.8955424681        3.7813765416
  X         4.2811117907        1.3425208893       -1.1084842006
  X         4.1101301886        1.9917764800       -1.1934974128
  X         0.8051942515        0.3334626052       -4.6670160584
  X        -1.5948413528        3.7607970375        1.3561288784
  X         2.2063761123       -2.4287892047        0.4840056515
  X         4.3730373024        1.8868848712       -0.7173892129
  X         1.3637920990        0.4382664967       -4.7024467470
  X         0.9655378368        0.9892798623       -4.7202480078
  X         1.6872535703       -2.8492101401        0.6931577635
  X         1.9841762553       -2.4935468630        1.2241864517
  X         1.0302095135        0.4724491630        4.8069218602
  X         1.5961909493       -2.3023230831        0.7159205933
  X        -2.1513453794        1.2955691261        1.0119568748
  X        -1.8215348314        1.8483852348        1.1719033511
  X         1.9426537452        2.6839089671       -1.0942932743
  X        -1.8923914824        1.2627730918        1.4822441899
  X         1.2963406948        2.6053320598       -1.0501451991
  X         3.7774061392        1.6269142478        1.9216339116
  X         1.4637913774        3.0115388683       -0.5577425006
  X        -1.4899274352        1.1663679165        0.9481564388
  X         3.6463328915        1.7603748632        1.1417948362
  X         0.2659010804        0.3517506034       -0.4911602195
  X         3.3869603325        2.1110153384        1.6489572510
  X         1.1998254845       -0.3476131079        2.5699869116
  X         1.5413201701        2.3146500708       -0.6680292989
  X         0.7539101576       -0.0502307251       -0.2358626841
  X         0.7905461598        0.7239991981       -0.3578724996
  X         1.1483171819        0.1003421358        2.8877179135
  X         3.1740567918        1.6103962660        1.6040620802
  X         1.6996961417        0.0858961557        2.4590789618
  X         0.3436597810        0.4303817233        0.0471255909
  X         0.9223893909        0.1509906801        2.2241372608
