     224
 Particles+Wannier centers. Iteration:1_2500
  O         1.2647534725       -0.0392839569        2.5405429711
  H         1.9284180178        0.6487094121        2.3218114725
  H         0.6701962495       -0.0420214231        1.7375612116
  O         1.1426010402        0.6239541027       -4.8195422690
  H         1.0358575369        0.4492107750        4.2802473839
  H         0.8256034175        1.4965182476       -4.6138475833
  O        -3.5523421603       -4.4347162961       -4.9699808719
  H        -4.1163838182       -4.7834156603        4.4271891983
  H        -3.9526346937       -3.6350634223       -4.5406123346
  O        -4.0299757884       -0.7130310644        1.9955801216
  H        -3.0808741935       -0.4602175864        1.7150139470
  H        -4.3671859827        0.0443161730        2.5118848379
  O         0.3892263363        3.5788461601       -3.9804395970
  H         1.3908610119        3.5828692861       -3.9479386087
  H         0.1557328392        4.0536565767       -4.8242093296
  O         0.5048398291       -2.5608148214        3.9288685253
  H         0.0698707326       -2.1252427310        3.1450986549
  H         0.0681556611       -3.3784924582        4.1240638286
  O        -3.8414183488       -4.1289647624        1.1596451753
  H        -4.4239564828       -3.7129241602        1.7983244828
  H        -3.9853728662       -3.6316324414        0.3106306570
  O         0.4687971396        0.3899983472       -0.0291627755
  H         0.9763021458        1.2038056268       -0.1891108867
  H         0.8233713121       -0.3508099569       -0.5638906935
  O        -1.0811869705        4.8867541833        3.9749356307
  H        -1.3903869758        4.6155235950        3.0875278838
  H        -1.8453766401       -4.8877025346        4.5406770484
  O         3.2257017802       -3.0757591457       -4.8020074956
  H         2.2463509956       -2.9797268086        5.0420311355
  H         3.5975130484       -2.1616234837       -4.7606611841
  O        -1.2061103898       -2.2069822923        1.6250601199
  H        -1.9837676171       -2.5757406013        2.0093703039
  H        -0.8115154266       -2.8278463198        0.9690807191
  O         2.0093090107       -2.8811523798        0.9660415371
  H         2.7674429129       -2.6170978593        0.3998511629
  H         1.9523035075       -2.2100419330        1.6472128559
  O        -2.0019276019        1.0951647701        4.3660509038
  H        -1.9321651952        0.3377224717        3.7903243060
  H        -1.4434314045        1.8008730607        3.9439043082
  O        -3.6878736988        0.7687747687       -2.8533066901
  H        -4.0084773712        1.1506813953       -3.6784181018
  H        -2.8789808801        1.2259716761       -2.7025666416
  O        -4.6069242544        1.3138681552        3.7902934354
  H        -3.5809818377        1.3892418792        3.9273115082
  H        -4.9946786460        2.2734786631        3.7833612961
  O        -3.6729738843       -1.9426515514       -3.8222350344
  H        -2.8342778306       -1.5093239258       -4.0611801679
  H        -4.3200714690       -1.2385399866       -3.7656728730
  O        -1.7933308931        1.4720022387        1.4274738518
  H        -2.0734006349        2.3422410540        1.0971836265
  H        -1.4853958295        0.9630529086        0.6347955731
  O         3.4893287790        1.9941730341        1.8599807061
  H         4.3052582281        1.4720357403        2.0948176735
  H         3.3026758233        1.9922836245        0.8491998733
  O        -3.8634975337        3.9872121009       -2.7358662610
  H        -3.1144394196        3.4457620591       -2.3462391717
  H        -3.5309282769        4.4125281181       -3.5516961919
  O         3.7984400150       -0.4830361498       -4.6765349242
  H         2.9156752964       -0.0328946491       -4.6114941959
  H         4.2464395220        0.1540658191        4.7851443444
  O         0.0113418091       -4.3344916151       -0.0330241011
  H         0.0823820913       -4.5017510639       -0.9831716226
  H         0.7889605825       -3.7925513178        0.1828617522
  O        -4.3546457968       -3.5989394647       -1.5890876430
  H        -3.7909059442       -2.9698452891       -2.1433350308
  H        -4.2288851813       -4.5138268737       -1.9464419451
  O         4.0331448507       -1.0874118147       -0.0515398759
  H         4.7362732840       -0.9161074343        0.6276407258
  H         4.5241175195       -1.6873505464       -0.7463733787
  O        -1.2754701400        2.1326667819       -2.3205750496
  H        -0.6100395394        2.1066892510       -1.5790861133
  H        -0.6773984228        2.5635335141       -3.0058773462
  O        -0.9676639729       -1.2196524767       -4.2354008941
  H        -0.3537233145       -1.6500382450       -4.8572948385
  H        -0.5366283918       -0.3728698000       -4.0899156012
  O         1.5365453935        2.7207634970       -0.8997769524
  H         2.2613706289        2.3019110271       -1.4714657470
  H         1.7392605263        3.6973147766       -0.8502377933
  O         4.5163016258        3.7435481722        3.9741819717
  H         4.0492450803        3.8329369841        4.8455361894
  H         3.9227323088        3.8373593778        3.2235972251
  O         3.3726797051        4.9724750858       -1.2046853481
  H         4.0652895025        4.8577189001       -0.5388828519
  H         3.5490756672       -4.2145757504       -1.4343636342
  O         4.4275337900       -3.0659945871        2.8045325165
  H         5.0138020762       -2.2145988050        2.7934397670
  H         3.8617899139       -3.0348236976        3.6566386454
  O         4.0699242184        1.8853325954       -1.3420357551
  H         4.3319403999        0.9668614963       -1.1769899970
  H         4.8471631790        2.1462073764       -1.8924916775
  O         3.1737558659        4.4133319027       -3.8492485452
  H         3.6386843064        4.3467548131       -2.9837540283
  H         3.2818037716       -4.7200737151       -4.1786563671
  O        -1.8201921872        4.1616606305        1.5377479966
  H        -0.9450186422        4.5292042381        1.3749741764
  H        -2.4622637188        4.7741810256        1.1934527155
  X        -3.7719501995       -4.0330675315       -4.7723772413
  X        -3.5526048968       -4.6682077162       -4.7396130462
  X        -3.7630640866       -2.1698384152       -4.0486747632
  X        -3.2612974794       -4.3628836351        5.0057567385
  X        -3.8575705957       -4.5963183343        4.7623130203
  X        -4.0579166755       -3.2938995715       -1.8710356970
  X        -3.6400523272       -2.0494328943       -3.5181368287
  X        -3.2558683929       -1.7151828394       -3.9522095306
  X        -3.6766253181        4.1847876241       -3.1535966625
  X        -4.2827321304       -4.0549618703       -1.7773155094
  X        -4.0135830672       -1.5692201512       -3.8044696086
  X        -4.6576100748       -3.5167446317       -1.6389012912
  X        -3.9193558774        4.2414318378       -2.5312461154
  X        -4.2488133734       -3.5951347777       -1.2760341999
  X        -4.0930344126        3.7949869039       -2.8039717796
  X        -3.4676023559        3.7142491723       -2.5430857490
  X         3.2653741068       -3.2761905223       -4.5418156625
  X         3.2265465362        4.8957382569       -3.9908794760
  X         3.3468608506       -3.1722069315        5.0136226446
  X         3.3938821011       -2.6260565096       -4.7564053762
  X        -1.4824613258        5.0395215423        4.2458971097
  X         3.4160510645        4.3890668595       -3.4113547856
  X        -3.9226431748       -3.8619599630        0.7312320910
  X        -1.2670005494       -1.1839580165       -4.3666422074
  X        -3.6397485998        0.4722005097       -2.9032705836
  X         2.7213595647       -3.0127432433       -4.9133001055
  X         4.1602377589       -3.0431362836        3.2301731209
  X        -4.1328456078       -3.9075011253        1.4863718556
  X         3.3483932251        4.2333719188       -4.0818904060
  X        -3.5349382437       -4.0899702788        1.2406727113
  X        -3.8512805963        0.9787239746       -3.2991233825
  X        -3.9367521655       -4.4162754948        1.1107999108
  X         4.7280023085        3.9754722238        3.9629102157
  X        -3.2631730235        1.0087994329       -2.7859960464
  X         3.4534181692       -4.6361618649       -1.3181543650
  X         4.6430031782       -3.3117236677        2.8099655785
  X         2.8571443347        4.3433887958       -3.8106002937
  X        -3.8891452875        0.8678865204       -2.6331099635
  X        -0.9441651371       -1.3704786419       -3.9774334580
  X         3.7619168081       -0.7960102981       -4.8054895826
  X         4.7184810182       -2.6234736293        2.8201386183
  X        -0.8957547165       -4.9592711699        3.9399784173
  X        -0.6554092862       -1.4342414778       -4.5604515621
  X        -0.9462115619        4.6305917889        4.1257447563
  X         4.2604436326        3.7833537722        4.3930337547
  X         3.4632554931        4.8102433406       -1.4625200544
  X         4.1825472132        3.8029755305        3.5971103871
  X         4.2486534893       -3.0361602263        2.5673218210
  X         3.7349148901        4.9132622843       -0.8491412932
  X         3.9448259337       -0.4496316273       -4.4087427032
  X        -0.7477797700       -0.7696447592       -4.1644861138
  X        -1.2531282519        4.7558729406        3.5373593609
  X         0.2832879324        3.8185745360       -4.4156810044
  X         0.2648884905       -2.9946845288        4.0106900699
  X         4.0234482686       -0.1714270466       -5.0119208076
  X        -4.1158767294        1.3635504479        3.8564101695
  X         4.6386799985        3.4102427485        3.9474362378
  X        -2.3266823819        1.1971680296        4.3087541865
  X         3.0811972562        4.9358412160       -1.0775902679
  X        -1.5119021360        2.3406291547       -2.2492759647
  X         0.8996798124        3.5751759562       -3.9743183542
  X        -4.0291422818       -0.9707977596        2.1845165540
  X         0.2899742568        3.7373324216       -3.7470505823
  X         3.3488985169       -0.2625292921       -4.6420869865
  X        -2.1344931414        4.4837733262        1.3470814635
  X        -1.6199395974       -2.4242839223        1.8183841236
  X         0.4234270471       -2.3735370855        4.1854423342
  X        -4.7791141477        1.7716484303        3.7781817109
  X         0.8106837562       -2.6188828225        3.8834995292
  X         4.2960360732       -1.3963367358       -0.4064910336
  X        -4.7389702431        1.1542830816        4.0444417370
  X         0.0544015912       -4.4170836891       -0.5445896533
  X        -1.3501519042        1.8371379745       -2.4032519616
  X        -1.9052951737        1.0343877811        4.6466284151
  X         4.4654456028        2.0288325597       -1.6298031952
  X         0.2867923379        3.2619063655       -4.0043016145
  X        -4.2059659532       -0.7250527019        1.7218897581
  X        -0.9829987007        2.3397194014       -2.6710080907
  X        -1.9484170947        0.6941268516        4.0560578635
  X        -1.8412120539        4.1888819456        1.8665689649
  X        -3.5434038870       -0.5803949054        1.8657173030
  X        -1.0237352192       -2.5395070244        1.2913655795
  X        -0.2401014614       -4.1442423941        0.0144573488
  X        -4.6527955702        1.1704871262        3.4780055326
  X         0.2824107692       -2.3597416566        3.5258926259
  X        -0.9898028545       -2.1812886170        1.8682263735
  X        -1.8476067004        3.8695275374        1.4016885660
  X        -4.1911191409       -0.3201962860        2.2541809197
  X         0.4092235311       -4.0677740649        0.0592098860
  X        -1.7032048221        1.4548079390        4.1393363494
  X         4.3939793413       -1.0114821541        0.2932058621
  X         3.9786804526       -0.8161088832       -0.1956976135
  X         4.2003041765        1.3996722270       -1.2606207075
  X        -0.9396637014        2.1181979010       -1.9267737015
  X         0.0288563827       -4.6098630733        0.1162925602
  X         3.7879160716        1.8946246484       -1.5127253028
  X        -1.3652966834        4.3587692798        1.4412989231
  X        -1.2948612471       -1.9521876768        1.4807510514
  X         2.4000822054       -2.7374356516        0.6709451956
  X         3.8026897734       -1.2692057606        0.0685442460
  X         0.9481717787        0.4305269563       -4.6734225035
  X         4.0881355088        2.0277658310       -1.0671707148
  X         2.0797353472       -3.1368661299        1.0947650441
  X         1.7272978462       -2.8838547504        0.7781016062
  X         1.4675488202        0.6071471859       -4.7564663681
  X         0.9791476550        1.0959335433       -4.7309780064
  X         1.9813092606       -2.5186480257        1.3158533707
  X         1.0795444501        0.5637980458        4.7816991341
  X        -1.9441199625        1.9118998805        1.2381779519
  X         1.6461973364        3.2196124058       -0.8772801587
  X        -2.0464427087        1.3155172824        1.5356752863
  X        -1.6420705310        1.2161461198        1.0007018795
  X         1.8963616328        2.5248896942       -1.2029777930
  X         3.9184876848        1.7160416179        1.9476361476
  X         1.2513734725        2.6798389603       -1.0353298638
  X        -1.5496572506        1.5166352385        1.6017232295
  X         3.5431538445        2.2885978246        1.9415972232
  X         3.4192780700        1.9759707761        1.3377442240
  X         1.5763719819        2.5843378137       -0.6090115697
  X         0.6719446472        0.0100298155       -0.3222682450
  X         1.4099078654       -0.3111595701        2.5326370573
  X         3.2424429410        1.8294478354        1.9889803354
  X         0.1757921862        0.4459216401       -0.1271005053
  X         1.1106359366        0.0591935813        2.8276956390
  X         0.5119099658        0.3049952279        0.2846084126
  X         0.9544710781       -0.0278558781        2.1479716764
  X         1.6042981707        0.3195499004        2.4182154756
  X         0.7457446977        0.7896332748       -0.1231218831
