     224
 Particles+Wannier centers. Iteration:1_500
  O         1.0958839508       -0.2968995404        3.6695101917
  H         1.5933303389        0.3776282169        3.1126455724
  H         0.7167207998       -0.9504638319        2.9734182992
  O         0.5513835526        0.1473478710       -3.7753812943
  H         1.0115798676        0.1374033772       -4.6516822035
  H         0.4733997930        1.1028518089       -3.5918841949
  O        -4.2489648625        3.5159257491       -4.6479975086
  H        -4.7788691785        3.4576096268        4.5785254418
  H        -4.2259020741        4.4364876370       -4.3210658595
  O        -3.3002672785       -0.4664291855        1.0855618562
  H        -2.6848021839        0.2686698978        1.0606689154
  H        -3.7892196554       -0.4191050668        1.9498132105
  O         0.2247084285        2.8587106948       -3.7873378445
  H         0.9448005610        3.4845517958       -3.9996994332
  H        -0.3964698834        3.0744299058       -4.4625723799
  O        -0.8116458156       -3.2723504076        3.9803127916
  H        -0.9037360030       -2.7603932633        3.1664236863
  H        -0.7791483729       -4.2225476876        3.7064864799
  O        -3.2522889415       -3.3376012707        1.1553913832
  H        -4.0708752869       -3.2835180236        1.6807483825
  H        -2.9160679790       -2.4439107827        0.9870090947
  O        -0.3121911232        0.5759864050       -0.5600240753
  H         0.6274680934        0.4723605575       -0.8828967946
  H        -0.7774952265       -0.2450493072       -0.9471069997
  O        -1.2709404872        4.1056475202        4.2270352428
  H        -1.4848531694        4.0467617692        3.2518436100
  H        -2.1446345631        3.8162319529        4.6804423856
  O         2.0355210848       -3.2404894900        4.7598390057
  H         1.0237525917       -3.2137725512        4.5026139813
  H         2.3424235620       -2.3902395686        5.0353141265
  O        -0.5172650479       -1.5607631591        1.9752566139
  H        -1.0764185382       -0.8454339376        1.5066060164
  H         0.0261789151       -1.9662087900        1.2798197210
  O         3.3270904292       -3.3203563760        0.0368723993
  H         3.8355210514       -2.6671443039       -0.4957577154
  H         3.7457016690       -3.1756350809        0.9079676317
  O        -1.6642150447        1.1318761143        4.2097061210
  H        -1.4890815773        1.2363417772        3.2170395580
  H        -0.8623000933        0.5826446129        4.4245816072
  O        -3.9884859676       -1.0453125329       -3.7747067213
  H        -4.9778269121       -0.8738223784       -3.8227616180
  H        -3.5581894634       -0.2601740665       -3.4266597053
  O        -4.3747468092        0.1845044756        3.7379881158
  H        -3.4786413736        0.2967760579        4.2176448248
  H        -4.9047258175        0.9785554528        3.8118352161
  O        -3.2936001930       -3.7528440163       -3.8703062679
  H        -2.4585565971       -3.9046630302       -4.3368720102
  H        -3.6099371363       -2.8378323508       -4.0409286413
  O        -1.7180791458        1.7214768229        1.4319228674
  H        -1.8730814855        2.6498226798        1.4036488275
  H        -0.9576132038        1.5324142368        0.8197692434
  O         2.0939148550        1.8013548904        1.8005750245
  H         2.5213241987        1.2542436365        1.0909188158
  H         1.5880709534        2.4502850164        1.2256089193
  O         4.6609766726        2.2626956910       -2.5350266191
  H        -4.5585366403        2.0075743277       -2.2828008718
  H         4.9183330296        2.7816799869       -3.3595251223
  O         3.4485137820       -0.9372016481       -4.2401931872
  H         2.8120391983       -0.5429283393       -3.5856564390
  H         3.5703072893       -0.2424023449       -4.9085882399
  O         0.6927377345       -2.7451382227       -0.1520854060
  H         0.2741966060       -2.6124559437       -1.0298746072
  H         1.6551679517       -2.8879203438       -0.1075318182
  O        -4.2248053939       -4.2456703501       -1.3085008251
  H        -3.6202416027       -4.0710172251       -2.0625425193
  H        -3.7437269837       -3.9693531078       -0.5003686529
  O         4.9817762625       -1.1254575120       -1.0006770820
  H        -4.2999278987       -0.9156339797       -0.5611429989
  H        -4.9026526060       -1.4676709509       -1.8443960532
  O        -2.5315996415        1.3591404729       -2.8603043125
  H        -1.7372454904        1.5907903419       -2.3351836670
  H        -2.4982113063        1.6373695683       -3.7674183972
  O        -0.9184287672       -1.6391684494       -2.2792741280
  H        -0.2746793561       -1.1280502946       -2.8745467432
  H        -1.8093152646       -1.3876812982       -2.5531122494
  O         0.3781872405        3.9376616204       -0.3317029294
  H         1.2752989881        4.3199110295       -0.5517077277
  H         0.1788188467        3.3763294049       -1.0878745512
  O         3.7362277187        2.5415422166        3.9295782471
  H         3.2192827984        3.1919296553        4.4318142716
  H         3.1821800977        2.2686361700        3.1149518236
  O         3.0707142679        4.2260930284       -1.2942611594
  H         3.4737574743        3.4106142271       -1.6680731493
  H         3.8787699837        4.7601925698       -1.0648381514
  O         4.3690135897       -2.4484153227        2.4753144354
  H         4.7878425810       -1.7433148793        2.9660048991
  H         3.7483785579       -2.9159411302        3.0966171606
  O         2.7359489927        0.4542998491       -1.0857141529
  H         3.5179766137       -0.2043717507       -0.9851358995
  H         3.1807800524        1.2159787836       -1.5657727143
  O         2.6512151531        4.4918838857       -4.2488715746
  H         3.2127108874        4.4865962473       -3.4358607340
  H         2.4176408167       -4.6657212919       -4.4430003795
  O        -1.6233001096        4.4857178813        1.5418942174
  H        -0.9738232352        4.5031999203        0.7913663898
  H        -2.2132678673       -4.8141936835        1.3720475566
  X        -3.5024770527       -3.9616243693       -3.9911254771
  X        -3.4411545122       -3.2871641997       -3.9772068088
  X        -3.2387024444       -3.7691979814       -3.5513718024
  X        -2.8517636508       -3.8138304657       -4.1178674475
  X        -3.8994172277       -4.1523992513       -1.6853122197
  X        -3.9483359311       -1.2783322458       -3.5577192041
  X        -4.2536815375        4.0015944085       -4.4979173233
  X        -4.4631119462       -4.0571333260       -1.3411615323
  X        -4.2681648387       -4.5500740674       -1.2929210892
  X        -3.8930503318       -1.0979150618       -4.0554086080
  X        -4.4780666595       -0.9395035656       -3.7845158862
  X        -3.9639955443       -4.1019014364       -0.8981170394
  X        -3.9470491722        3.4419534164       -4.7077445589
  X        -3.7740729479       -0.6266592700       -3.5930105014
  X        -4.4221062345        3.3414872742       -4.4210773569
  X        -4.5120969569        3.5148018000        5.0095066031
  X        -1.0558242464       -3.2381609695        4.1654768235
  X         2.9510795402        4.4991113648       -3.8293976109
  X        -1.3902492947       -1.5043616184       -2.4381257387
  X        -3.3445668762       -3.4431966074        0.8668351216
  X        -3.6714658055       -3.2924081745        1.4325774589
  X        -4.9928710044       -1.2984808889       -1.4547666485
  X        -1.7279634451        3.9626173770        4.4553991084
  X         3.3119022278       -1.1905590017       -4.3766833396
  X        -3.0286447309       -3.5235934673        1.3091781259
  X         2.0823407314       -3.4684497337        5.0100368459
  X         2.5497764162        4.9654936135       -4.3288258875
  X         4.7725953752        2.5205912683       -2.9445101582
  X        -0.8661553113       -3.0231053398        3.5563757785
  X        -3.0872533573       -2.8707851270        1.0867408653
  X         2.8197873062        4.3683730615       -4.5023107612
  X        -2.4852556902        1.5201272835       -3.3345889827
  X        -0.7962378874       -3.7571782692        3.8195706777
  X        -0.8772100360       -1.9447645282       -2.2936358901
  X         2.1899887832       -3.2860637911        4.4929661186
  X         4.0553159996       -2.6806434026        2.8098848669
  X        -2.5510000142        1.0391363948       -2.8749437537
  X         2.1695736687       -2.7861936864        4.9120211609
  X        -1.2355905727        4.4204847044        4.2760250883
  X        -2.7763699079        1.5078253581       -2.7306345877
  X         3.7518173401       -0.9592686289       -4.0932124388
  X        -0.6119827528       -1.3901106250       -2.5864640420
  X        -4.9722848723        2.1321924084       -2.3890329999
  X         4.8546854726       -1.3640893466       -0.8485800329
  X         2.3744029063        4.3437620124       -4.1671867119
  X         4.5249945439        2.4633058986       -2.3107111639
  X        -0.4978273755       -3.2105408035        4.0900535092
  X        -4.6818521525       -1.0165788547       -0.7898169932
  X        -4.5402872653       -0.0424691689        3.8706623879
  X        -1.0482844244        3.8965232263        4.3159158379
  X         1.5378784977       -3.2058936651        4.6452401769
  X         3.1234154379       -0.7248798389       -3.9065581175
  X         4.6045618305       -2.6577511972        2.4013573388
  X         4.5756167805       -2.0765686049        2.7398120134
  X         3.4896833812        4.4862925710       -1.1686674924
  X         3.5860220827       -2.9801730261       -0.2402470818
  X        -2.1048524024        1.4892570295       -2.6131455082
  X        -0.8873920639       -1.4906230333       -1.9840367117
  X         3.4974608049       -0.5653301748       -4.5890873515
  X        -3.9378356427        0.2592908800        3.9868340656
  X         4.5107087851        2.0028173333       -2.6110706584
  X         4.7940509261       -0.8539393243       -1.0368261381
  X        -1.3856140488        4.0563423900        3.7417308221
  X        -4.3053384954        0.1447222891        3.4175950963
  X        -1.9200255436        4.8822713697        1.4529992382
  X         4.2012076871       -2.3396318315        2.2426838112
  X         3.5407356105       -3.2463926945        0.4908051264
  X         2.9617132212        4.3630266736       -1.5430191030
  X         3.3950404853       -3.6034690579       -0.0603868669
  X        -0.1064769002        2.9677187810       -4.1391299468
  X         3.2730330310        3.7947982922       -1.4731518903
  X        -4.6365627056        0.6149418286        3.7857273373
  X        -1.9401080446        0.9421636276        4.2449626791
  X         0.5966905399        3.1744567837       -3.9008858373
  X        -1.4775376377        4.5176718629        1.8331217988
  X        -3.1287106029       -0.7405955514        1.0942059157
  X         3.0016978710       -3.2140158032        0.0532526797
  X         4.0196290619        2.6866290260        3.8479750746
  X         0.1082545197        2.9403343098       -3.5129622880
  X        -1.7928113086        4.2109149689        1.5006176917
  X        -3.5461072653       -0.4313546741        1.5274399818
  X         0.5145387438       -2.6678781026       -0.6222591215
  X        -1.6401430677        1.4053624587        4.3501314105
  X         0.2637508898        0.0196461236       -3.8083034734
  X         2.8793242821        4.1704078844       -1.0436498228
  X         0.3262364729        2.5425493210       -3.8252477605
  X        -3.5035599549       -0.4366120003        0.8417279065
  X         3.4571081131        2.8715216173        4.1781784531
  X        -1.2529816606        0.8450048133        4.3274962531
  X        -1.2928724445        4.5057765258        1.1692516661
  X         3.7594842435        2.2798122640        4.1001126388
  X         0.7399300081        0.0135165104       -3.5637177705
  X         0.5867594769       -3.0028665113       -0.0684946572
  X         1.1774935010       -2.7958969527       -0.1701724429
  X         0.7884927115        0.1482615884       -4.2198846442
  X        -2.9835625925       -0.0910343213        1.0862442452
  X        -0.7111720590       -1.7849159749        2.1095429248
  X         0.5122734410        0.6305747110       -3.6773579884
  X        -1.5798131981        1.1855867616        3.7113329138
  X         0.1452152554        4.1560026285       -0.2907545909
  X         0.6073781273       -2.4855012982        0.0503067054
  X         3.4608070832        2.4253854485        3.5215752434
  X        -0.2552253711       -1.7574863973        1.6198476541
  X         3.1160317313        0.1266803767       -1.0457676499
  X        -0.3000370016       -1.4028039132        2.1764924247
  X         0.8215148315        4.1377598060       -0.4514482844
  X         0.2762839298        3.6433126412       -0.7414363430
  X         1.2974740674       -0.4270866270        3.8736154285
  X         2.9657294559        0.8488556948       -1.3342068958
  X        -1.7992924366        2.2004232306        1.4040385088
  X        -0.8020523633       -1.1931075614        1.7269844989
  X        -0.5464868446        0.1590723239       -0.7440137429
  X         2.5036455558        0.3399177006       -1.2633207549
  X        -1.9713767051        1.5472438897        1.3109481559
  X         0.4334738029        3.7375238362       -0.0959226322
  X         0.8476190439       -0.1410347717        3.7886017922
  X         0.9308360295       -0.6227386839        3.3305306108
  X        -1.6257157460        1.6489809855        1.7409312620
  X        -0.4326042423        0.8251967925       -0.7106400922
  X         2.6720967830        0.5588185079       -0.7915038633
  X         0.1685238028        0.5141729005       -0.7221272738
  X        -1.3264785534        1.6468913671        1.1297919471
  X         1.3573524224        0.0453791936        3.3774840584
  X        -0.3263574439        0.5788604946       -0.2311973499
  X         2.3313889430        1.9574847304        1.9761671821
  X         1.8343998168        2.1371245358        1.5105434342
  X         2.3189243902        1.5211652875        1.4358095528
  X         1.8921782704        1.6121734552        1.9511789281
