     224
 Particles+Wannier centers. Iteration:1_2900
  O         1.3685659276        0.0658634635        2.6631622700
  H         2.0120884861        0.7587690936        2.4267620651
  H         0.5434549718        0.5688484240        2.5412890385
  O         1.1300669065        0.2284307897       -4.6509893244
  H         1.1469044681        0.1879371612        4.4316271437
  H         0.7231966723        1.1200212275       -4.4903885390
  O        -3.6108815262       -4.4298875938        4.9055142591
  H        -4.1478554480       -4.4438284968        4.0935023951
  H        -3.8330131389       -3.6516465304       -4.6671017992
  O        -4.3115630651       -0.5354005405        2.4491278072
  H        -3.3366385428       -0.4842864410        2.5167501212
  H        -4.6816615318        0.1017871247        3.1334451392
  O         0.5108249840        2.9213443861       -4.2193527949
  H         1.0466121455        3.7237962666       -4.0928642615
  H        -0.1728608612        3.2934504672       -4.8532971453
  O         0.2842058597       -3.0083611831        3.9531213785
  H        -0.1004744429       -2.6267579110        3.1999049335
  H        -0.1376837606       -3.9028766005        4.0139012154
  O        -3.2706092265       -3.7149757851        1.3639245916
  H        -4.0896256010       -3.6290306691        1.8396548682
  H        -3.4931861796       -3.6168996750        0.4299904297
  O        -0.3124175645       -0.1352343197       -0.1938717120
  H        -0.1733986113        0.1524739736       -1.1198810585
  H         0.5308365413       -0.5590147910        0.0539804405
  O        -1.0575139180        4.4055994010        4.1013665042
  H        -1.2652193087        4.1645793638        3.1312903359
  H        -1.8734340347        4.7303579551        4.4872417189
  O         2.9775955203       -2.5935900227       -4.8676850023
  H         2.2770178195       -2.3469615374        4.6521644559
  H         3.2798795645       -1.7676380688       -4.4294718231
  O        -1.6677187055       -1.4724643085        1.9666605792
  H        -2.2363615936       -2.2082421784        1.6438381771
  H        -1.4207670454       -0.9417966015        1.1737266008
  O         2.1889692831       -1.9631909513        0.5672550067
  H         3.0985713138       -1.6666783564        0.3234343922
  H         2.0750675408       -1.9417449612        1.4950381515
  O        -1.7429517365        1.1526516632        3.9896868368
  H        -1.6079528414        0.2670900111        4.2940883272
  H        -1.8942904197        1.1317595583        3.0372352853
  O        -3.3858581610        0.9295720682       -3.0575383624
  H        -3.4315253729        1.9322012800       -3.1265221738
  H        -2.8027599856        0.6750500861       -2.2751339554
  O        -4.7883004981        1.3991514677        4.3123307236
  H        -3.8295286624        1.5528751817        4.3471138846
  H         4.8462538272        2.2872206635        4.1819775586
  O        -3.1887616440       -2.1018885355       -3.5211704973
  H        -2.2377803026       -1.8573011961       -3.5191146677
  H        -3.6053970487       -1.2463140902       -3.6917613798
  O        -1.7631264693        1.6956717249        1.3464415097
  H        -1.6598738502        2.7049811894        1.1444465216
  H        -1.3816497615        1.1684945576        0.6240580432
  O         3.4535850676        1.6637919158        1.8181854381
  H         4.3927294731        1.5512912866        2.1327726054
  H         3.5638969283        1.5366021807        0.7899754852
  O        -3.8911507245        4.1273841498       -2.6434954697
  H        -2.9217524856        3.8762081848       -2.5785925439
  H        -4.0175216907        4.4907362523       -3.5095404721
  O         3.8360764507       -0.2864070218       -3.5578079994
  H         3.0210428011        0.2587674037       -3.7476574091
  H         4.5243548083        0.1456503086       -4.0909439748
  O         0.2887501386       -4.3608449564       -0.2521656768
  H        -0.2542672997       -4.7472557134       -0.9237686970
  H         1.1609827656       -4.4086687558       -0.6644493228
  O        -4.4553345725       -3.4066028378       -1.6044783062
  H        -3.9671942363       -2.7428575154       -2.1697511574
  H        -4.1390358260       -4.2725149411       -1.9488367374
  O         4.6715285586       -1.0631403187       -0.2213841941
  H         4.8519107733       -0.8274810075        0.7384588780
  H        -4.9594489705       -1.9573400800       -0.3422273050
  O        -1.2426052751        3.6778586541       -2.1419309986
  H        -0.9223590027        3.1596476368       -1.3340342813
  H        -0.7133770580        3.3305558495       -2.8828971528
  O        -0.5539925579       -1.6689286775       -3.5227870926
  H        -0.6388155686       -2.2075469297       -4.3708060824
  H         0.0412157026       -0.9713561533       -3.7876638420
  O         1.6182763111        3.1137288355       -0.8966403708
  H         2.3939934407        2.5157353469       -0.8607501281
  H         2.0760144445        4.0085771806       -0.6542212332
  O         4.1004710458        3.6948693700        3.6853106349
  H         3.6496329599        4.0150977584        4.4877639989
  H         3.5036439575        3.6278607464        2.9195067580
  O         3.4492938590       -4.4081448443       -0.5325540452
  H         3.1574018713       -3.6272215996       -0.0000459000
  H         4.1501657417       -4.0076338458       -1.2151735613
  O         4.5525930151       -3.0886028626        2.8626314356
  H         4.9623017881       -2.2140969803        2.9281779569
  H         4.0894614388       -3.0619793631        3.7345169408
  O         3.9359091866        1.7128418120       -1.0706190277
  H         3.9662293128        0.7607435045       -1.4213353097
  H         4.7031006750        2.0471968162       -1.6787791619
  O         2.2435936464       -4.9771207605       -3.9730251498
  H         2.4672038687       -4.9089685316       -3.0380195095
  H         2.4412612547       -4.0515683704       -4.4155123132
  O        -1.6039354346        4.2055825004        1.3653650872
  H        -0.8269571741        4.7116013128        0.9559638497
  H        -2.3515928705        4.8899720280        1.4839573719
  X        -3.7413073377       -4.0172802761       -4.9395105765
  X        -3.2582300293       -2.3021684137       -3.7617922142
  X        -3.7048854895       -4.6795701650       -5.0217145201
  X        -3.3053384757       -4.4164794768        4.8251077798
  X        -4.2285641607       -3.0760358900       -1.8862960551
  X        -3.2862258834       -2.1894154981       -3.2060200834
  X        -3.8975829070       -4.4201414592        4.4818273977
  X        -3.9465798980        4.3115867946       -3.1086690155
  X        -3.4072593732       -1.6492121724       -3.6166975490
  X        -4.2862457006       -3.8407907093       -1.7779261718
  X        -2.7182780056       -1.9825808295       -3.5220753739
  X        -4.7851415415       -3.4071035974       -1.6425260986
  X        -3.9342934710        4.3744482684       -2.4425664745
  X        -3.4075903802        4.0052646284       -2.6338960864
  X        -4.3486920558       -3.3704524618       -1.2945983526
  X        -4.0581898169        3.8643982618       -2.6208761530
  X         3.2189357057       -2.6779278918        5.0293237108
  X         2.4550531458        4.9216452073       -4.0957605860
  X         4.3230977330       -3.0925126727        3.3096995357
  X        -0.5935996345       -1.9413893688       -3.9632659877
  X        -3.6998491742       -3.6734907391        1.5970742783
  X        -3.3993292633       -3.6644587628        0.8765660713
  X         2.8589534830       -2.8351514648       -4.6652201652
  X        -3.2523099676        0.8228367580       -3.3084028524
  X         3.1119095879       -2.1839587705       -4.6418923484
  X        -1.4962923814        4.5624617093        4.2926514200
  X         2.3268960666       -4.5283904428       -4.1715804215
  X        -3.3911722030        1.4523934714       -3.0754356067
  X         2.3658606612       -4.9218048726       -3.4735643757
  X        -3.1454048101       -4.0248366399        1.4052719905
  X         4.8056421795       -3.3101506970        2.8620514965
  X        -3.0849618048       -3.4578578604        1.4386505638
  X        -0.8716527121       -1.5559209177       -3.4749384849
  X        -3.6683224014        0.8421994381       -2.9805728428
  X         4.7637630614       -2.6351211738        2.8969098973
  X        -0.4261396788       -1.8403943803       -3.3179396801
  X        -1.5800466349        3.6205759048       -2.1994076848
  X         3.7736171490       -4.2079176843       -0.8742106683
  X         1.9289144536        5.0368775244       -3.9905714870
  X         3.7744611744       -0.5885038836       -3.6989989157
  X        -3.0725424777        0.8203165106       -2.6395666919
  X         2.6081946965       -2.4479448087        4.9311473504
  X         4.3488352004       -3.0793395339        2.6431908606
  X         4.1937295315       -0.0573292797       -3.8387097516
  X         0.0704860880       -3.4692071138        3.9706178361
  X        -0.8721028869        4.6697365125        4.0848263360
  X         3.8406955445        3.8623774926        4.0913080384
  X        -0.2610058615       -1.3033924222       -3.6611019294
  X        -1.1515478367        3.9664416282       -2.0892877785
  X         3.9053450783       -0.2569696586       -3.2566693681
  X        -0.9489675072        4.1439789259        4.2744901026
  X        -4.8727276069        1.2780266983        4.5881245631
  X        -0.9771127306        3.4910662968       -2.5136125198
  X         3.5966147466       -4.5967145338       -0.3535208924
  X         4.9246591636       -1.5255421504       -0.2703344154
  X         0.1652087946       -2.8467591770        4.2013767118
  X         3.3109785521       -3.9953131812       -0.2619249277
  X        -4.2909949727        1.4989021071        4.3301102066
  X         0.5956640959       -3.0319415168        3.9172960372
  X        -4.9985696236        1.8348757876        4.2488858320
  X         4.3098572105        3.9002863573        3.6203889243
  X        -1.1767946090        4.2811838596        3.6269706300
  X         3.4266943697        0.0033494221       -3.6585714285
  X        -4.3959055247       -0.8352132520        2.5465859222
  X         4.2085327871        3.3771631807        3.7633326667
  X         3.1729128369       -4.5119706573       -0.6888912708
  X        -1.0841242034        3.3942568107       -1.7272744956
  X        -1.9769614890        4.5360966239        1.4003347388
  X        -4.8341691689        1.2069454871        4.0327869286
  X         0.0776983785       -2.8146108720        3.5419456553
  X        -1.9545795789       -1.8443031814        1.7843967197
  X         0.0002003423       -4.5680584093       -0.6163643969
  X         0.3391007061        2.9028021401       -3.9404452818
  X         4.7830599831       -0.8552353238       -0.4111328547
  X        -4.4906128031       -0.2128488279        2.7893450131
  X        -3.8109542281       -0.4937065847        2.4940789471
  X         4.7715523531       -0.9496030639        0.2675357771
  X        -2.0194702369        1.2477332935        4.1184932695
  X         0.7963355757        3.3190217341       -4.1642158712
  X         3.7676457536        3.6684399827        3.3047027436
  X         0.7491767029       -4.4033152275       -0.4664436688
  X         0.1705397046        3.1013222224       -4.5443837940
  X         0.2167574612       -4.0702120464       -0.2375452396
  X        -4.4053938064       -0.4483359227        2.1539965883
  X        -1.6809696587        3.9224174200        1.1886167446
  X        -1.6755047151        0.6624423859        4.1360555367
  X        -1.8614419789       -1.2841053061        2.1451867512
  X         4.3270995017        1.8963813957       -1.3705621550
  X         4.3513783423       -1.1479650889       -0.2157473643
  X        -1.4063442072       -1.5933215198        2.0860881814
  X        -1.2238604345        4.4659423515        1.1532695552
  X        -1.4861568198        1.2977928592        4.0360875115
  X         0.6587158041        2.6587291144       -4.3341453808
  X         0.2617974170       -4.5598540127        0.0092567296
  X         0.9255784876       -0.0109277021       -4.5290914110
  X        -1.5130499857        4.1564710503        1.6743076085
  X         3.9390132789        1.2266451593       -1.2436774918
  X        -1.5500851217       -1.2069490302        1.5469069892
  X         1.4368399733        0.2466700770       -4.5490359417
  X        -1.8197607220        1.1124371574        3.5037313475
  X         4.0241250220        1.7057878778       -0.7559599964
  X         0.9167997018        0.6763558589       -4.5729494912
  X         2.6524333641       -1.8035344504        0.4738554108
  X         1.1304336661        0.2089951138        4.9450236232
  X         3.6523513952        1.8530454508       -1.1557421158
  X         2.1940574719       -2.2695027829        0.4888549501
  X         1.8538233629        3.5764690910       -0.7699103373
  X         2.1510804490       -1.9446401596        1.0724881050
  X        -2.0604541765        1.6406054352        1.3474655104
  X        -0.5373861378       -0.3520208163       -0.1845393493
  X         1.5469182692        3.1377715652       -1.1922710495
  X         1.9752702568       -1.7628357822        0.4383553120
  X        -1.6963228686        2.1683613210        1.2302191687
  X         2.0125208039        2.8039568985       -0.8660982409
  X        -1.6030149637        1.6190354318        1.6177834826
  X        -0.2369453129        0.0093252109       -0.6885683973
  X         3.9456865127        1.5941209269        1.9778938563
  X        -0.3580575307        0.1317584545       -0.0243833662
  X         1.4071977295        3.0472246758       -0.6783169131
  X        -1.5631796634        1.4339319215        0.9567456136
  X         3.3920563066        1.9656383807        1.8607768141
  X         3.5093958463        1.5900865733        1.3060349482
  X         0.1266844644       -0.3416907588       -0.0735023094
  X         1.3819190354        0.0384621002        2.9973035918
  X         3.2568358535        1.4272626051        1.9460273736
  X         1.3801275702       -0.1772411468        2.4768123101
  X         0.9284556731        0.3284860443        2.5900121881
  X         1.6934837038        0.4176760828        2.5404171936
