     224
 Particles+Wannier centers. Iteration:1_2850
  O         1.3900177488        0.0163228082        2.6295384735
  H         1.9852249181        0.7004118439        2.2632801269
  H         0.5555408057        0.5014946206        2.5814536047
  O         1.1049310591        0.2750173032       -4.6507987933
  H         1.5283960014       -0.0334581342        4.6356910362
  H         1.1071786664        1.2123338095       -4.7354750830
  O        -3.6869842333       -4.4912315515        4.9380622821
  H        -4.4232929959       -4.4257425234        4.2867395908
  H        -3.3567610826       -3.5708896824       -5.0201151274
  O        -4.3320652517       -0.4854036658        2.3799954270
  H        -3.4366105515       -0.4498251661        2.0142888475
  H        -4.3076450875        0.1735829373        3.0554569561
  O         0.4493228747        2.9568219567       -4.2418061269
  H         1.0893125028        3.7025347475       -4.2691120159
  H        -0.1011268222        3.2130730725        5.0426804349
  O         0.3340730812       -3.0934307844        3.9718516644
  H        -0.1391323891       -2.6035851481        3.3050204963
  H         0.0478106996       -4.0366459649        3.8363529008
  O        -3.3845293390       -3.8162515262        1.3214368598
  H        -4.1205122181       -3.7638857544        2.0078181562
  H        -3.7698233850       -3.8432520574        0.4417489282
  O        -0.1836962304       -0.1897253242       -0.1806918038
  H        -0.0402613856        0.6398885871       -0.6765996522
  H         0.7173411098       -0.4875234168        0.1173141301
  O        -1.1731206723        4.4145655739        4.2266444787
  H        -1.4451411092        4.0806912816        3.3106991535
  H        -1.9876147397        4.7206319313        4.6417650403
  O         3.0000993731       -2.6292482171       -4.9567379258
  H         2.1355771804       -2.3064961222        4.9106777933
  H         3.3628195349       -1.9315994144       -4.3496838877
  O        -1.5595336851       -1.4444804113        1.8950090928
  H        -1.9840123626       -2.3284008904        1.7065032771
  H        -1.0684888321       -1.3303586782        1.0418184684
  O         2.1275982841       -1.9584249660        0.4977862922
  H         2.9819832225       -1.4247712146        0.3768462920
  H         1.8866285001       -1.8623872932        1.4027452797
  O        -1.7347288055        1.2498935899        4.0506812979
  H        -1.6252444383        0.3401351200        4.3173535814
  H        -1.5525946218        1.1696772759        3.0803459838
  O        -3.4650969592        0.9640506598       -3.0878920482
  H        -3.6630067671        1.8838503965       -3.4434444020
  H        -2.6901038170        1.0908069701       -2.4380821356
  O        -4.8467824970        1.3861690073        4.3733246994
  H        -3.8818626907        1.5036211973        4.5174322830
  H         4.9609713087        2.3434810268        4.1101562987
  O        -3.2563257779       -2.0862616889       -3.6199551775
  H        -2.2867963433       -1.7852502163       -3.4890538026
  H        -3.7701876283       -1.2653055918       -3.6110246775
  O        -1.8420984576        1.4549974488        1.2324997393
  H        -1.5990065412        2.4180489800        1.2708839954
  H        -1.0826915972        0.9145645053        0.9056297649
  O         3.4232789775        1.6643492982        1.8738198499
  H         4.2381606690        1.5207984575        2.4187386544
  H         3.7369724517        1.8088037124        0.9060592438
  O        -3.9066828972        4.1110493416       -2.5932905935
  H        -2.9108061987        4.0669463493       -2.4252979702
  H        -3.9536880720        4.5232203317       -3.4687245694
  O         3.8361859042       -0.2930900616       -3.6482476902
  H         2.8906001507       -0.0433112238       -3.7973447910
  H         4.3744069372        0.2976036218       -4.1996368154
  O         0.2535242352       -4.5686138396       -0.2990357951
  H        -0.2584064243       -4.6472937350       -1.0829483204
  H         1.0549266992       -4.1278566871       -0.5839115443
  O        -4.4415059350       -3.4180094073       -1.6715995746
  H        -3.9850349044       -2.9618542666       -2.4459851559
  H        -4.2301651708       -4.3767085694       -1.8445241465
  O         4.5442148778       -1.1659062619       -0.0151051263
  H        -4.7338395112       -0.8487377172        0.3570917354
  H         4.8228097574       -1.8873176533       -0.7093280346
  O        -1.1818599128        3.5465244204       -2.2433232801
  H        -0.8914954582        3.3926689601       -1.2802050176
  H        -0.4158075398        3.2525730568       -2.8618754846
  O        -0.6635148191       -1.6588265328       -3.5972229496
  H        -0.2174577674       -2.4731101306       -4.0419241216
  H        -0.1843013218       -0.8606141920       -3.8452179665
  O         1.6485000952        3.0914946660       -0.8673246077
  H         2.4015514943        2.5434834792       -1.2067670996
  H         2.1624894015        3.8887635606       -0.4500517942
  O         4.2173038501        3.8289969116        3.6586013505
  H         3.5360577371        4.0421808192        4.3125649868
  H         3.8029914497        3.5748150160        2.8172288599
  O         3.3154607533       -4.4737789038       -0.5327311247
  H         2.9048278291       -3.8258266067        0.1317070613
  H         4.1502345484       -4.0007469938       -0.9727447551
  O         4.5778237995       -3.0069234961        2.8332911295
  H         4.8727148773       -2.0356618693        2.7213003646
  H         3.9853552476       -2.9012368967        3.6875932424
  O         4.0160935677        1.6455430569       -1.0589408482
  H         4.3251610580        0.7170979353       -1.3481480547
  H         4.6628835367        2.2256445109       -1.6185110828
  O         2.3905869154        5.0359741736       -3.9177186217
  H         2.4556431556        4.9800156251       -2.9601869540
  H         2.5326582899       -4.1124040541       -4.2854039410
  O        -1.4857027098        4.2275750694        1.3534809493
  H        -0.6645569089        4.7553396282        1.1561044481
  H        -2.2048614678        4.8988186189        1.1616748477
  X        -3.5263535803       -4.0119551635        4.9961698838
  X        -3.2774923309       -2.2166776815       -3.9112603529
  X        -3.8066097235       -4.5919297098       -4.8812420959
  X        -3.4446435265       -4.6610547384        4.8072802701
  X        -4.2357653489       -3.1988209677       -2.0500682568
  X        -3.3693440232       -2.2744241954       -3.3466814556
  X        -4.0665729309       -4.4477664477        4.5990351419
  X        -3.5228190568       -1.6506242237       -3.6178629782
  X        -3.9248015726        4.3173937267       -3.0540131843
  X        -4.3371009148       -3.8989323087       -1.7525280905
  X        -2.7980944955       -1.9332047588       -3.5446400907
  X        -4.2961348966       -3.3352871331       -1.4005622366
  X        -4.0259830617        4.3378045482       -2.3878024095
  X        -4.7753212416       -3.3903205708       -1.6684816778
  X        -3.4090456077        4.0957161057       -2.5177418365
  X        -4.0192143246        3.8176832044       -2.6051160470
  X         3.1847282674       -2.6411622080        4.8642801525
  X         2.4481628678       -4.5896130318       -4.0658072565
  X        -0.9958447190       -1.6488783262       -3.6894023940
  X         4.8607762183       -3.1960201013        2.8906415072
  X        -1.5990842986        4.5608133570        4.4405587703
  X        -3.6070228342       -3.8266894226        0.8642982835
  X        -3.7594417374       -3.8027881302        1.6496688852
  X         3.1753496158       -2.2837530698       -4.6475431790
  X        -3.3688132602        0.7858512079       -3.3205677450
  X         2.9385247486       -2.9180922029       -4.7886750030
  X         2.6262288960        4.8711764114       -4.0330531649
  X        -3.5529848183        1.4480523501       -3.2691470129
  X        -0.4267484579       -2.0652212952       -3.8342041868
  X        -3.2138073381       -3.5458037061        1.3426702475
  X         2.4299191440        5.0342211750       -3.4090920139
  X        -3.2188516084       -4.1037232697        1.3467303894
  X        -3.7084648936        0.8898481019       -2.9196648430
  X         4.2969701289       -2.9687868426        3.2607122888
  X        -0.6144124394       -1.6899223282       -3.3078559903
  X         3.8542745106       -0.6055531732       -3.7746459257
  X        -1.2040192897        3.8550094306       -2.2603906930
  X         2.0886016773        4.9305264099       -3.9927863333
  X         4.7232400994       -2.5207820897        2.7839817742
  X        -3.0588424704        1.0427494910       -2.7527893822
  X         2.5470400072       -2.4439965373        5.0256771069
  X         3.7241022073       -4.2302893341       -0.7317552997
  X        -0.9941520307        4.6768068615        4.1709393085
  X         4.3844802609        4.0803072082        3.6215749039
  X        -1.3263172403        4.2444210924        3.7691822032
  X         4.3975699875       -3.0747130101        2.6025929293
  X        -0.4178294783       -1.2545578885       -3.7455947304
  X         4.1026092819        0.0172859924       -3.9424622108
  X         0.2228641163       -3.0078366098        4.2577134467
  X        -4.3461347435        1.4537500627        4.4527217376
  X         3.9015449884       -0.2420625429       -3.3524425955
  X        -1.4560228641        3.3850284613       -2.2965651799
  X         3.0980762290       -4.4966361446       -0.7605359889
  X        -1.0355386545        4.1612030633        4.3948539723
  X        -0.8089665792        3.3954165951       -2.5235044533
  X         3.8407491767        3.9312053109        3.9854099029
  X         4.6919967243       -1.5319672405       -0.3594577326
  X         0.1897109529       -3.5782647812        3.8885526983
  X        -4.9832456439        1.8479657456        4.2469737963
  X        -4.9876974169        1.2955894812        4.6466816174
  X         4.3694564418        3.5379690602        3.7676204552
  X         0.6400191442       -3.0659028112        3.9150389965
  X         3.3993957136       -4.7356516891       -0.3848554849
  X         3.3536226804       -0.1505683141       -3.7342565815
  X        -4.3946617831       -0.7811108160        2.5077543254
  X        -4.8638855511        1.2031586817        4.1034522619
  X        -1.0257899298        3.4537610297       -1.7430252819
  X         3.1195829868       -4.1360230932       -0.1909935945
  X         0.0780293334       -2.8413970200        3.6145696460
  X        -0.0163705040       -4.6018089860       -0.7263435439
  X         0.2562721949        3.0014820500       -3.9597873025
  X        -1.8466468691        4.5582445297        1.2424712654
  X        -1.7738385890       -1.9035163345        1.8011397459
  X         4.4451458851       -0.9334869312       -0.1838415544
  X        -4.3106058726       -0.1432414637        2.7345609815
  X        -2.0488262480        1.3100311132        4.0755776468
  X         4.9869326044       -1.0142057805        0.1815278108
  X         3.9818155016        3.7101142096        3.2266181808
  X         0.7804781478        3.3331615731       -4.2573999752
  X        -3.8635124462       -0.4697161839        2.1947402032
  X         0.1768451709        3.0741030560       -4.6477158714
  X         0.6757668693       -4.3366915816       -0.4556413923
  X        -1.6737943625        0.7560961120        4.1912909746
  X         0.0992978595       -4.3864467102       -0.0999727660
  X         4.3490927914        1.9450636798       -1.3434655533
  X        -1.4969837367        4.1809819506        1.6783680942
  X        -4.5134515184       -0.3791035965        2.1612393340
  X        -1.5181449254        1.4173170946        4.1834981484
  X        -1.3042821182       -1.3903867894        1.4553113984
  X         4.3431585519       -1.2896208306        0.2017109142
  X        -1.7902266073       -1.2312186851        1.9027556048
  X         0.6075369169        2.6731941180       -4.2986132674
  X        -1.0657988036        4.4953731924        1.2590873980
  X         0.3203167913       -4.8513843258       -0.2121061260
  X         0.8065467798        0.1580656998       -4.6268140894
  X         4.1701297712        1.1738846607       -1.2063028403
  X        -1.4981307867        3.9626142145        1.1623953344
  X         1.3177241739        0.2092265900       -4.4156886211
  X         3.7141007299        1.7029201244       -1.1696435263
  X        -1.6324840283        1.2036210780        3.5561634529
  X        -1.3500124165       -1.4857593555        2.1282280016
  X         1.1079529090        0.7605764545       -4.7102006610
  X         2.1906890384       -2.2724829961        0.4364124245
  X         1.3236415071        0.1145782641        5.0235999986
  X         4.0824380728        1.6868173005       -0.7382634721
  X         2.5419238983       -1.6910800516        0.4541415347
  X         1.4976580387        3.2042775411       -1.1099446587
  X         2.0141054316       -1.9082346417        0.9895932653
  X        -1.8514758361        1.3759009488        1.5478326211
  X         1.9149084939        3.4923762636       -0.6502397771
  X        -0.3045979233       -0.3981474315       -0.3556489055
  X         2.0379264994        2.8124132060       -1.0444568816
  X         1.8916274080       -1.8040967618        0.3411446092
  X        -2.0795935173        1.4097706689        1.0573349950
  X        -1.6976387835        1.9393972340        1.2343914300
  X         3.8566903478        1.5819587781        2.1442456833
  X        -0.3434474500       -0.0939936412        0.0941785405
  X        -0.1008476449        0.2465956917       -0.4427271928
  X         1.5098535319        2.9320455138       -0.6448091419
  X        -1.4371341732        1.2048811924        1.0599114931
  X         3.3302118031        1.9487497544        1.9665040779
  X         3.5933710027        1.7248182410        1.3932845036
  X         1.4549322092       -0.0080292541        2.9459675071
  X         0.2828205080       -0.3226099895       -0.0373041139
  X         3.2168723200        1.4103997313        1.9006378752
  X         1.3748627216       -0.2312098445        2.4406530909
  X         0.9365672058        0.2747716004        2.6002245020
  X         1.6874979617        0.3621666847        2.4409169743
