     224
 Particles+Wannier centers. Iteration:1_350
  O         0.8396779801        0.1412586929        3.4461203978
  H         1.3684679764        0.6038896148        2.6928146932
  H         0.5462988392       -0.6058519638        2.8875916119
  O         0.6810518014        0.2036882022       -3.9436817748
  H         0.5594290875        0.2163138905       -4.9532565398
  H         0.3546032738        1.1009179502       -3.6288094894
  O        -3.9432948015        3.3152939253       -4.4280205910
  H        -4.5719916080        3.2381309899        4.9168521183
  H        -3.6953345711        4.2731565853       -4.4546973587
  O        -3.2828527302       -0.4567354936        1.2985547073
  H        -2.8100119317        0.3394142362        0.9450350495
  H        -3.8990964569       -0.1414713132        1.9770424528
  O         0.1561610782        2.9999129265       -3.4456828772
  H         0.9861054450        3.5123820101       -3.6321221443
  H        -0.4476490031        3.4325405531       -4.1342227377
  O        -0.5467843386       -3.1833390487        4.4374574359
  H        -0.7872213641       -2.7435305341        3.5691720464
  H        -0.5496464053       -4.1509289900        4.2650353158
  O        -3.1585346199       -3.2761183618        1.1897050877
  H        -3.8453229023       -3.1067925114        1.9051433406
  H        -2.7891842220       -2.3947895028        1.1024520110
  O        -0.0603946438        0.1580240414       -0.5813205517
  H         0.8376190689        0.0889168551       -0.8239780112
  H        -0.5872637973       -0.4501210746       -1.0567204538
  O        -1.3080166780        4.0147293864        4.3495958542
  H        -1.5767962871        3.9716498736        3.4343325539
  H        -1.9350745354        3.3331600321        4.7848616423
  O         2.3725038531       -2.7587418310        4.3677462658
  H         1.4358363521       -2.7992208126        4.4928070791
  H         2.6171092695       -1.8405995614        4.6962402189
  O        -0.6479818444       -1.5416724678        1.9698288648
  H        -1.3553146291       -0.8114763388        2.0569675226
  H        -0.6787497574       -1.9863314777        1.1213357935
  O         2.9386169713       -2.8928409948        0.0062331729
  H         3.7673970126       -2.4095755476       -0.3706489423
  H         2.9831664310       -2.6860752446        0.9692721724
  O        -1.8873997542        0.6868172053        3.7102606729
  H        -1.7095375000        1.3392409655        2.9711466023
  H        -0.9893290157        0.5526468193        4.0310371565
  O        -4.0973912611       -1.3244873830       -3.0684371039
  H        -4.9287978854       -1.0314144697       -3.5176324867
  H        -3.4694874926       -0.5338708312       -3.0983411356
  O        -4.3444920106        0.1705364126        3.6987527589
  H        -3.4153175784        0.3996175014        4.0421361511
  H        -4.8986265077        0.9304110408        3.9265653378
  O        -3.0442433045       -4.0613096487       -4.0235569917
  H        -2.7109563574       -4.0573747388       -4.9557664463
  H        -3.3717358866       -3.1052320787       -3.9408624142
  O        -1.6083474487        1.6094944190        1.0944930057
  H        -1.7885767360        2.5897160220        1.0778183829
  H        -0.8765446659        1.3563014446        0.4960012940
  O         2.0417639224        1.5908539086        1.3376653132
  H         2.3050527020        0.9485004131        0.5908019903
  H         1.2497020416        2.0426305255        0.9570437983
  O         4.4471486791        1.9628752572       -2.1553296335
  H        -4.9113493406        1.4365202752       -1.8987773365
  H         4.6389018441        2.1726409630       -3.0621656504
  O         3.3008178471       -0.3519523349       -4.5575320516
  H         2.5490411156       -0.0025661504       -4.0007629526
  H         3.3854214169        0.3311396294        4.8566696086
  O        -0.0085710716       -2.8742862316       -0.3495986187
  H        -0.2278597820       -2.5005483925       -1.2453201152
  H         1.0026304575       -2.8420987075       -0.3086168509
  O        -4.4827516774       -4.5733413310       -1.1649037751
  H        -3.8621392702       -4.9376393256       -1.8558324219
  H        -3.9291764054       -4.0956907336       -0.4902871754
  O         4.9898308714       -1.2635821338       -0.5934792096
  H        -4.3560227232       -0.9624573134       -0.0416786387
  H        -4.7112747049       -1.6114683393       -1.4548613682
  O        -2.9395399255        1.1402474678       -2.8999421557
  H        -2.0048305243        1.0667734217       -2.6865639737
  H        -2.9939845065        1.8173509954       -3.5510866146
  O        -1.1923198054       -1.2529291569       -2.7358662243
  H        -0.4402644731       -1.1369148308       -3.3292713374
  H        -1.6276274395       -2.0693304904       -3.0042559115
  O         0.4216653519        3.7776017626       -0.2970560482
  H         1.3264774564        4.0335289173       -0.6257576950
  H         0.0832285278        3.7281022152       -1.1859108171
  O         3.7632473453        2.4575039706        3.9199629171
  H         3.3491849179        3.1628129799        4.4596604015
  H         3.3088058170        2.4901661702        3.0304187393
  O         2.8395940573        4.4235325091       -1.2958219511
  H         3.6121776358        3.7407783446       -1.3052831919
  H         3.2839148242       -4.8719508141       -0.8068807987
  O         4.9163196290       -2.4213354646        3.1477700177
  H        -4.8219171813       -1.6420887280        3.5806867344
  H         4.1974084415       -2.7934812262        3.7276374140
  O         2.5176290788        0.4024207595       -0.9036144238
  H         3.3679455492       -0.0705377049       -0.6849612124
  H         2.9238075315        1.1555525380       -1.3728442245
  O         2.5652811123        4.6695940998       -4.4511905791
  H         3.0729058666        4.7334572739       -3.5998079227
  H         2.5354311642       -4.4865865469       -4.8360515173
  O        -1.5528181749        4.5043248049        1.5054295719
  H        -0.7889070733        4.6693853176        0.9546860812
  H        -2.1171196072       -4.7546261806        1.4798176261
  X        -3.2179184110       -3.5761702839       -3.9902239558
  X        -3.2923948447       -4.2709534891       -4.0134108283
  X        -2.8017705461       -4.0854542875       -3.8445292148
  X        -2.8775396745       -4.0578891849       -4.5164891912
  X        -3.9726098851       -1.5724186181       -3.2451313977
  X        -4.1396513370       -4.7598266486       -1.5209288465
  X        -3.8220104313        3.8044537167       -4.4475946419
  X        -4.1786073271       -1.3789625347       -2.7487194469
  X        -4.5257945820       -1.1602898549       -3.3026366634
  X        -4.6518818595       -4.3652664750       -1.3048899704
  X        -4.1794230561       -4.3338902269       -0.8299184326
  X        -3.7947451036       -0.9298885052       -3.0915176112
  X        -4.1002488445        3.2585445709       -4.1697069520
  X        -3.6740153052        3.1425002337       -4.4970180310
  X        -4.6070470845       -4.8129312987       -1.0265088338
  X        -4.2676486822        3.2783719368       -4.8264828429
  X         4.5607766456       -2.6105756586        3.4635161621
  X        -1.4183682782       -1.6905779927       -2.8838183152
  X        -0.2407135633       -3.1041844645        4.4933302615
  X         2.8365486977        4.7164183132       -4.0137190467
  X        -3.3121415840       -3.3453437291        0.9152233608
  X        -4.9393292200       -2.6369651745        3.1033809578
  X        -3.5037706218       -3.1918113035        1.5527129605
  X        -5.0022718773       -2.0217764967        3.3939217804
  X        -1.6304530334        3.6619221829        4.5773894796
  X        -2.9555260914        1.4922976281       -3.2506058126
  X        -0.7703180489       -3.1291819094        4.6410672141
  X         2.5576462495       -4.9541838168       -4.6321597691
  X        -0.6750254842       -2.9765592944        3.9873141222
  X        -2.9275073799       -3.4950673901        1.3047060575
  X        -3.0297735579        0.8485594257       -3.0285861397
  X        -1.3822892080       -1.0225408584       -2.7780205809
  X         2.2695149269        4.5851257831       -4.3668150683
  X        -4.9033418759       -1.4360217709       -1.0180015038
  X        -2.9574895814       -2.8193173507        1.1458720059
  X         2.5048730290       -2.9918524000        4.5695847361
  X        -0.8100945231       -1.2154563811       -3.0458140783
  X        -3.0854215369        1.2430476004       -2.6505032406
  X         4.7776821294       -2.3191808192        2.9052093319
  X        -1.3927694660        4.2990759338        4.4503170682
  X        -0.5508249064       -3.6883184769        4.3303206437
  X         2.7363380417        4.4756287616       -4.6575136635
  X        -2.4413254763        1.1146506061       -2.7957411350
  X        -1.0721781379       -1.3066545348       -2.4350966498
  X        -1.0168355913        3.9125597241        4.3889735418
  X        -4.4580490099       -0.0993941494        3.8313691247
  X         1.8826886943       -2.7723610720        4.4319335096
  X         4.5471573104        2.0599138725       -2.6415859601
  X         3.5781257271       -0.3661860545       -4.3915727044
  X         2.4886027507       -2.3006304520        4.5391816279
  X         4.8222637886       -1.5155042091       -0.4505545372
  X        -4.7209708492       -1.1244423064       -0.3194449575
  X         2.8144780387        4.5060545045       -1.5960336933
  X        -3.9053798788        0.2892356192        3.8839577509
  X        -1.4469093106        3.9755009370        3.8777470401
  X         2.4357305474       -2.7702476029        4.0668256857
  X         4.8421643829        1.6795846651       -2.0227898694
  X        -0.1598496466        3.2191439458       -3.7963745668
  X         4.4632486629        2.2330803680       -2.0019424437
  X        -4.6357150156        0.5721512674        3.8297079869
  X         3.1833058267       -0.6241544439       -4.7102974789
  X        -1.8318181237        4.9247840838        1.4830279034
  X         4.8151284427       -0.9966274942       -0.6676238403
  X         3.3349582353       -2.6510931529       -0.1782431487
  X        -0.1129342085       -2.6740102293       -0.8218187248
  X         3.0591322556        4.8196327142       -1.0464484586
  X         2.9313225765       -0.1658336691       -4.2722255544
  X         3.2282706126        4.0716765105       -1.2857829255
  X        -4.3147322423        0.1779444774        3.3705946003
  X         0.5874029881        3.2548632008       -3.5449220545
  X         4.1714340317        1.7862549341       -2.1293416320
  X         0.0593062822        3.0849406200       -3.1599490020
  X         3.3426512882        0.0127023538       -4.9167722670
  X        -2.1118735615        0.7946614000        3.9334035714
  X         3.5430439260        2.8195778199        4.1921756665
  X        -3.4618268350       -0.5868821418        1.0425039037
  X        -1.4628447010        4.4642562396        1.8166145946
  X         2.9895888671       -3.2075374959       -0.0204482963
  X        -0.0845732510       -3.1681315946       -0.3591786853
  X         2.6545061854       -2.7684220422       -0.1050632390
  X        -1.7111106344        4.2546624236        1.3698768257
  X        -0.1365005659       -2.6701560702       -0.1168339449
  X         0.1959583093        2.6788288299       -3.5256086014
  X        -3.0667645409       -0.6413024658        1.4328006300
  X         2.5679060906        4.3072333647       -1.1231093058
  X         0.4971763076       -0.0428343758       -3.8177542260
  X        -3.5974677813       -0.2846521545        1.6364249261
  X         4.0775527009        2.5339384870        3.8910202590
  X        -1.9502570072        0.4317600648        3.5709320465
  X         2.9698864127       -2.7782491125        0.5177809441
  X        -1.1564343122        4.6070316742        1.2296547540
  X         0.5025195404       -2.8457861235       -0.3375893901
  X         3.6957884051        2.1730004503        4.0470757779
  X         1.0051150566        0.2058612726       -3.9032830783
  X        -1.4272576398        0.6287360847        3.8994482726
  X        -0.7280660626       -1.7633639499        2.2005960996
  X        -3.0582411016       -0.0498565259        1.1254946888
  X         0.6020866298        0.2228698218       -4.4435328796
  X         0.5021272171        0.6562281856       -3.7891278924
  X        -1.8028234997        1.0313833691        3.3493095285
  X        -0.6864098385       -1.7506455944        1.5285119957
  X         0.2246860082        3.7497384449       -0.7662405553
  X        -1.0104841530       -1.1736509063        1.9887737862
  X         3.5311658826        2.4908636383        3.4632504580
  X         0.2765218576        4.0177758360       -0.1345745155
  X         0.8732006239        3.9084995380       -0.4399089452
  X        -0.3555708264       -1.3976497552        2.0090079420
  X        -0.3297470280       -0.1719585845       -0.8382823775
  X         2.9433712169        0.1540388865       -0.8008480964
  X        -1.6927495163        2.1072006526        1.0620744403
  X        -1.8809332509        1.4404430269        0.9899699452
  X         2.7092177402        0.7936045005       -1.1462953043
  X         0.5691157603        0.3098499950        3.5243712156
  X         2.3162227153        0.2360126807       -1.0751188228
  X         0.4385335912        3.4782283275       -0.1846807990
  X        -1.5248202595        1.5533622498        1.4048543004
  X        -0.1586992366        0.4514446506       -0.6569826645
  X         0.3993557786        0.1036409979       -0.7224180323
  X         1.0208646227        0.0481193940        3.6893916454
  X         0.6945430709       -0.2495132611        3.1802991839
  X        -1.2312679088        1.5113405665        0.7963190769
  X         2.4175992671        0.5198154527       -0.5991905002
  X        -0.0838840809        0.0973487890       -0.2831808407
  X         1.1020046548        0.3826697339        3.0970778236
  X         2.2672776992        1.8025402448        1.3898293463
  X         2.1694767105        1.2780329190        0.9806217751
  X         1.9260242026        1.4035253850        1.6064663685
  X         1.6270922980        1.8212771837        1.1349534597
