     224
 Particles+Wannier centers. Iteration:1_1150
  O         1.5088626744       -0.6993237274        3.0880128617
  H         1.4284586680        0.1885194527        2.8151207314
  H         0.6460614228       -1.0047911704        2.7051884595
  O         1.2279185386       -0.2237410700       -4.2155194597
  H         1.3629385750       -0.4138032823        4.9401623433
  H         0.7868502113        0.6612835847       -4.2361413660
  O        -3.6451939529        4.5375114110        4.5841200129
  H        -4.3191143847        4.3546107602        3.8578683025
  H        -3.5536391400       -4.5818245550        4.5269674996
  O        -3.4351989129       -0.3223886391        1.2692565627
  H        -2.7376917876        0.3002255287        0.9645672738
  H        -3.9871803918        0.1066702409        1.9472658342
  O         0.2955836180        2.4213718549       -4.2874372753
  H         1.1957275791        2.8525319460       -4.3886943037
  H        -0.2132629712        2.6375029593        4.9547203237
  O        -0.3649980698       -3.2551940408        4.7646338372
  H        -0.5059002873       -2.8502499452        3.8799287040
  H        -0.4954461629       -4.1793862815        4.6009742254
  O        -3.4112327274       -3.5867225371        2.2791228711
  H        -4.2773504108       -3.2505121964        2.5480605535
  H        -3.4357435130       -3.4933851069        1.3039923324
  O         0.1448843321        0.0728986990       -0.5866972698
  H         1.0461555675        0.4433744341       -0.8128602217
  H        -0.0874500963       -0.5312593999       -1.3568545839
  O        -1.1495657179        3.6281508360        3.8019225885
  H        -1.0463991320        3.9515749570        2.8607852327
  H        -2.0648235519        3.8812248132        4.0642617720
  O         2.5357845262       -3.2998398140        5.0372863825
  H         1.5817802641       -3.1036555363        4.9626003926
  H         2.8768737466       -2.7627406000       -4.2702057924
  O        -1.0047360607       -1.8822154713        2.4340840924
  H        -1.8619314476       -1.3388059450        2.5443517365
  H        -1.0269842430       -2.0883631906        1.4931966060
  O         2.8271397443       -3.1941695512        0.5175653612
  H         2.8967429842       -2.3450175759        0.0655812954
  H         3.0848682944       -3.0085107495        1.4330464056
  O        -2.0113184705        0.5801412225        3.8350711241
  H        -1.7234445590        1.0993896181        2.9886338599
  H        -1.9556106172        1.2759881405        4.5047222659
  O        -3.4962765211       -0.4471140452       -3.5021231153
  H        -4.3302201227        0.0364906972       -3.2950558874
  H        -2.8435166299        0.1060894840       -3.0859836154
  O        -5.0430942677        0.4608145676        3.5420383070
  H        -4.2191479059        0.3448955031        4.0291971957
  H         4.6745831692        1.3776820053        3.7578177616
  O        -3.5234270561       -2.9643197620       -4.6879052211
  H        -2.7289040567       -2.6995030173        4.9666046930
  H        -3.7791738077       -2.1563170224       -4.1849416149
  O        -1.4365540381        1.7502001512        1.2081765144
  H        -1.4006937069        2.7627380463        1.0663401676
  H        -0.6880793988        1.3746851210        0.7785533396
  O         2.2182861660        2.5774946084        1.3433525082
  H         2.6520038173        2.1216032527        0.5942683044
  H         1.6910518519        3.2004637944        0.8421314042
  O        -4.4042416133        3.0819348696       -2.7864630480
  H        -3.5347054831        2.8051584722       -2.4759671243
  H        -4.2316876101        3.3414445930       -3.6910350097
  O         3.8337814825       -0.9482415073       -3.8799136132
  H         3.0831248340       -0.3102638727       -3.7362572746
  H         4.2120000056       -0.7395927472       -4.7641360160
  O        -0.2129579764       -3.3921376133        0.2590569592
  H        -0.4404657177       -3.3816599917       -0.7171479658
  H         0.6658143031       -2.9383774919        0.3772518352
  O        -2.5866366207       -3.8059265849       -1.9832826924
  H        -2.9465118562       -3.7128183480       -2.9140841557
  H        -2.7234430318       -4.7388827378       -1.7502540989
  O         4.6715198901       -0.7720285944       -0.3995213714
  H        -4.6796192695       -0.6004325909        0.2129335816
  H        -5.0401959807       -1.0543430891       -1.2486615136
  O        -1.8520462203        1.6724703720       -2.1841831124
  H        -1.2437017403        1.2137326993       -1.5344260406
  H        -1.3264720978        1.9191227651       -2.9769160722
  O        -0.5020020505       -1.9592369376       -2.6794841567
  H        -0.3724183569       -1.7515252791       -3.6355039749
  H        -1.3988474131       -2.3741615180       -2.5264690869
  O         0.7425185560        3.9593074376       -1.3148558246
  H         1.6805842735        4.0635221797       -1.4860306073
  H         0.3281849338        3.4392487795       -2.0215551817
  O         4.1192922256        3.0435060015        3.6284834255
  H         3.6694355257        3.3723641094        4.4780385802
  H         3.4245890162        2.9246776330        2.9292769909
  O         3.8442510709        5.0124257198       -1.5423085990
  H         4.8686142515       -4.8638370554       -1.6080269575
  H         3.5647284768       -4.6582578015       -0.7567263830
  O         4.1073960045       -2.4282836350        2.9852356947
  H         4.2124211893       -1.4935884234        3.0130552397
  H         3.4830429269       -2.7235671001        3.7033214080
  O         3.0919558701        1.1526163643       -0.9539929061
  H         3.8468604703        0.4490891301       -0.9094001426
  H         3.3759389352        2.0683100111       -1.2078855138
  O         3.1584498572        4.1363787475       -4.2395704543
  H         3.7398712737        4.3917005404       -3.4753179913
  H         2.9012565539        5.0358396625       -4.6184546703
  O        -1.6271856558        4.4953656624        1.0404412582
  H        -1.0310037963       -4.8405964115        0.8830467256
  H        -2.4057668300        4.8295122341        1.4710289293
  X        -3.4252112958       -3.1718162470       -4.4585548899
  X        -3.7308329608       -3.0565904806       -4.8975513067
  X        -3.6608266362       -2.5518378752       -4.4470072349
  X        -2.7711618485       -3.7751079199       -2.4597752315
  X        -3.1011113340       -2.8129148160       -4.9225769818
  X        -3.5991399452        5.0380823344        4.5505847520
  X        -2.7720285484       -3.6483515066       -1.8025205222
  X        -2.6584677321       -4.3076831314       -1.8741305504
  X        -3.7701134942        4.4553817486        4.8647217757
  X        -2.2786898928       -3.7461835976       -1.9944359294
  X        -3.3483395438        4.4012133983        4.4808432545
  X        -3.5125953505       -0.7397015549       -3.3742167091
  X        -4.3041255478        3.2096602170       -3.2703886594
  X        -3.9893450504        4.4487696243        4.2080916944
  X        -3.4665842912       -0.4215706816       -3.8018179388
  X        -4.4726497493        3.3429971017       -2.6420819073
  X        -3.9294939000       -0.1897025753       -3.3834080160
  X         4.3725949204       -4.9666677266       -1.5610120775
  X        -3.8619219710       -3.4197781822        2.4075805466
  X        -3.9400732357        2.9436028621       -2.6326845510
  X        -0.5888037480       -3.1543577747        4.9509327176
  X        -3.1497510760       -0.1640734385       -3.2815528358
  X         2.6940618689       -3.0314239384       -4.6545579520
  X         3.4649363481        4.2653108286       -3.8566833459
  X        -0.9778717782       -2.1615668940       -2.6246649791
  X        -3.1976648059       -3.4026689828        2.3810383554
  X        -3.4004621541       -3.9010446311        2.3259495193
  X         3.7087450996       -1.2448578078       -3.8971716371
  X        -4.5827771712        2.8382090052       -2.7855349214
  X        -3.4325634637       -3.5341723447        1.7543113182
  X        -0.0500566436       -3.2174709517        4.8353549267
  X         3.7148732587       -4.9580267473       -1.7903842553
  X         2.5684847343       -3.6294393657       -4.9899150139
  X        -0.4373074396       -3.7510521765        4.6711006610
  X         2.0492205170       -3.1906401261        5.0090145502
  X         3.0344147102        4.5883606054       -4.4259758223
  X         4.0658838408       -0.8808975848       -3.6717405884
  X         3.8225716367        4.7078316314       -1.4958724785
  X        -0.4636190624       -1.8567298212       -3.1771144967
  X         3.3340220063        3.9674429449       -4.4887537901
  X         4.0192525159       -0.8293102450       -4.3495761202
  X        -0.4949528377       -1.6702525120       -2.5041377553
  X         4.4077970334       -2.5672807969        3.0208782017
  X         2.6935849219       -3.1789279846        4.7641348593
  X        -0.4365639850       -3.0617576943        4.3100788606
  X         3.7036007977       -4.8564708994       -1.1281454552
  X         2.8962554384        4.0048671701       -4.1270849347
  X         3.8042025695       -2.5559407945        3.3537264336
  X        -0.3065105183       -2.1767309788       -2.6089374486
  X         3.4620126989       -0.6135622396       -3.8199200528
  X        -1.6159287419        3.7490390601        3.9193663547
  X         4.1519945025       -1.9299560593        3.0168433514
  X         4.8959578837       -0.9237694385       -0.8462477368
  X        -2.0510453238        1.4471076029       -2.2886500716
  X        -4.6135933213        0.4147479973        3.8108548599
  X        -2.0398873199        4.6820039699        1.2644501931
  X         3.9520264697       -2.4916229025        2.7077521329
  X         3.8791160607        3.1979102684        4.0330659761
  X        -1.9704359531        1.9362373353       -2.0694824547
  X        -1.5617678726        1.7937072799       -2.5926742062
  X        -0.9650558606        3.8059906651        3.9746500100
  X        -0.3114687997       -3.3810552931       -0.2486760481
  X        -2.3203160020        0.5190838089        3.8076100203
  X        -1.0115309885       -2.1529271055        2.6177463485
  X        -1.1039675460        3.7852710445        3.3172524083
  X         4.4993189144       -1.0003946002       -0.3010250229
  X        -1.4873209776        4.2874489005        1.2589369591
  X         4.8849184013        0.9071226029        3.6602107673
  X         3.0210094387       -3.4075851638        0.3785015687
  X         4.3315031536        3.2649233545        3.5395916764
  X         5.0499161727       -0.6875196391       -0.1059760058
  X         4.8559077196        0.2323889846        3.6454377670
  X        -1.3366069915        4.8845881455        0.9743755841
  X        -1.9753472957        0.9571308545        4.1973716182
  X         4.2302371109        2.7240410250        3.6902295675
  X        -3.6463693764       -0.3881116599        1.0073575364
  X        -0.4270895630       -3.1948352401        0.3955632670
  X         0.1412646810        2.5500969267       -4.0391529703
  X         1.0289350536       -0.4359944732       -4.1078164950
  X        -1.8059134362        0.3648093491        3.8964977862
  X        -1.4404388228       -1.6083315795        2.4926413822
  X        -1.5291882629        1.4516988329       -1.8629055081
  X         0.6292208459        4.2337034165       -1.3380819703
  X        -0.2096229304       -3.7046056016        0.3645125942
  X         2.9631940954       -3.0918930835        0.9858606450
  X        -1.1047603370        3.3064485288        3.8309201618
  X        -1.0253182784       -1.9917060620        1.9465640703
  X        -3.2913774791       -0.5578822413        1.4063506903
  X         2.8727590976       -2.7376687907        0.2868821202
  X        -4.9531586012        0.4534771356        3.2285104649
  X         0.7550571228        2.6491019581       -4.3492629176
  X         4.5183736400       -0.4689743072       -0.4843236443
  X         1.5246026059       -0.1830275262       -4.0839902563
  X        -1.7051759274        4.3747953033        0.7786902780
  X         0.0533451447        2.5295067900       -4.7174375010
  X        -3.7042223516       -0.0813336032        1.6128618045
  X         0.2413933599       -3.1660041124        0.3045902383
  X         1.2950479254       -0.3117516958       -4.7045715205
  X         1.2434666729        3.9946612135       -1.4271865476
  X         2.5137200244       -3.2439837498        0.5235306138
  X         0.5465160811        3.6749591465       -1.6998659803
  X         0.3527602205        2.0939140332       -4.2844968517
  X        -3.0879334211        0.0098479046        1.1187387281
  X         3.7513919596        2.9948967818        3.2789946191
  X        -1.8676363819        0.8435330367        3.4156788935
  X         1.0000400936        0.2270162175       -4.2322272974
  X        -0.7467138941       -1.6761480244        2.4723255487
  X         0.7221078787        3.7973027733       -1.0484070835
  X         3.4715857416        0.8499313670       -0.9591298719
  X         3.2636179686        1.6277450611       -1.0987717065
  X         0.0361490046       -0.2304347731       -0.9774763035
  X         1.4743798293       -0.6945337851        3.4170245838
  X         2.8579535076        1.0637804654       -1.1445694399
  X        -1.4088397464        2.2457124518        1.1305155396
  X         1.7433185364       -0.8251317333        2.9446199727
  X        -1.6953617208        1.6260928291        1.0604963778
  X         1.0724611754       -0.8604581335        2.8929142939
  X        -1.4105970884        1.6883858410        1.5330454537
  X        -0.0654509013        0.3292757899       -0.6123138987
  X         3.0116891209        1.2028138138       -0.6451284877
  X         0.6087663835        0.2542075550       -0.7126128908
  X         1.4694320788       -0.2131837425        2.9429840870
  X        -1.0302203024        1.5677804523        0.9826147361
  X         0.1592225239       -0.0828374729       -0.3271989247
  X         2.4348736793        2.7302376594        1.5299720786
  X         1.9413684510        2.9187691795        1.0809284921
  X         2.4482865808        2.3529282141        0.9611026111
  X         2.0236417696        2.3782060710        1.4586527080
