     224
 Particles+Wannier centers. Iteration:1_750
  O         1.8554568440       -0.2151497082        3.6833909142
  H         1.8598343771        0.7989547098        3.4071396939
  H         1.6196354112       -0.6846195713        2.9404718329
  O         0.6695173207       -0.0049042325       -3.6644873620
  H         0.9016175164       -0.1973804653       -4.6055170817
  H         0.5669291461        0.9841662707       -3.6321261329
  O        -4.3613152234        4.2890741654        4.6075448833
  H         4.9257123677        4.0056316874        4.0928601510
  H        -4.4838214029       -4.8887648066        4.9476967927
  O        -3.4262426069       -0.3562398806        0.9419493710
  H        -2.7657663957        0.3380801896        1.1585407827
  H        -4.0479795108       -0.1228813816        1.6899217667
  O         0.1986740686        2.8973159174       -3.7833305072
  H         1.1761601595        3.0631525564       -3.7253471698
  H        -0.0470927319        3.2024397717       -4.7189674594
  O        -0.7873100405       -3.0997357671        4.2601952371
  H        -0.5353925353       -2.6886352038        3.3564010989
  H        -0.8514758863       -4.1265490587        4.1714203060
  O        -3.2883046217       -3.3867627937        1.5701007711
  H        -3.6841991284       -3.5870926699        2.4431812452
  H        -3.4887247128       -2.4130099251        1.4492969385
  O        -0.1088213474        1.1459111827       -0.9424355083
  H         0.8347769185        0.8924552854       -0.9574796828
  H        -0.4825985677        0.2642094751       -1.1375414739
  O        -1.4159570612        4.0716843270        3.9624691895
  H        -1.3710048950        4.2616966011        2.9708105601
  H        -2.4023084387        4.0282612800        4.2177725436
  O         2.1054950282       -3.6547418038        4.9399260241
  H         1.1034135025       -3.5307261450        4.8442464740
  H         2.3544278214       -2.8852819337       -4.5161542961
  O        -0.3894289139       -1.7748319961        1.9963741135
  H        -1.2564148972       -1.6175664493        1.4619372562
  H         0.1677287338       -2.3356398041        1.3681695546
  O         3.7948604443       -3.3461442535        0.1675331436
  H         4.2415737153       -2.5375728739       -0.1315745598
  H         3.8429863153       -3.3150899026        1.1757655649
  O        -2.1690801355        0.8155012720        4.4147125621
  H        -2.0127707091        1.5589787878        3.8239655201
  H        -1.4533005741        0.1903725816        4.2864163735
  O        -3.6686622215       -0.9502311819       -3.6466846543
  H        -3.8987748763       -0.2853055844       -4.3279928805
  H        -3.1084641865       -0.4401096799       -3.0050185725
  O        -4.9296844497        0.1527393897        3.2098116882
  H        -4.0816475198        0.3875842563        3.6260259099
  H         4.6937128406        1.0170332490        3.3887314721
  O        -3.1992961508       -3.5865788817       -4.4215812724
  H        -2.3446898495       -3.3134272587       -4.8234145028
  H        -3.5787972877       -2.7053732782       -4.2130156050
  O        -1.4643680363        1.5910182352        1.6421234798
  H        -1.7034133164        2.4964730750        1.5048730725
  H        -0.7232818531        1.4550953317        1.0765855449
  O         2.0416652393        2.1971168206        1.7548013003
  H         2.5248168859        1.7105780380        1.0834693592
  H         1.6173233157        2.9274245211        1.3175958379
  O        -4.8626610722        2.3404325894       -2.7982871786
  H        -3.9837968727        2.0070377670       -2.6641737066
  H        -4.8074762631        2.7860938130       -3.6805377818
  O         3.2983507436       -1.5317250625       -3.9900490517
  H         2.5801523146       -0.9602105131       -3.5544249664
  H         3.6619661006       -0.9735862434       -4.7006493855
  O         1.1507844793       -2.9744308776        0.0465714048
  H         0.8573727253       -2.9316757476       -0.9052885963
  H         2.1340479043       -3.2110694350       -0.0128374548
  O        -4.0085299843       -4.3028459063       -1.7223285756
  H        -3.6081455757       -4.3664914523       -2.6052952348
  H        -3.5627627763       -4.9880820277       -1.1574799785
  O         4.8357942079       -0.7023221036       -1.0591240693
  H        -4.3661518480       -0.5182621793       -0.6166288532
  H         4.9724294523       -0.9581921254       -1.9965805195
  O        -2.3827638336        1.1624146301       -2.6531185290
  H        -1.6373672600        1.6280009414       -2.1875616972
  H        -2.0069588816        1.2636760595       -3.5307505106
  O        -0.4804328740       -1.5779469400       -1.8175196179
  H        -0.1059811381       -1.1107511182       -2.5980220186
  H        -1.0463021687       -2.2257982726       -2.2545691515
  O         0.7231957829        3.7803300661       -0.2721706759
  H         1.6520214410        4.1061206147       -0.4836218283
  H         0.4362585432        3.0866713786       -0.8720699480
  O         3.6940198778        2.3940981733        3.7613843742
  H         3.3062678855        2.6837784395        4.6140515327
  H         3.0688854310        2.5104829008        3.0192702246
  O         3.3999145483        4.1825966719       -1.3080793527
  H         4.1780799608        3.6831831075       -1.5834037804
  H         3.7700617852        4.9718678720       -0.8045242713
  O         3.4897444963       -2.6958171478        2.7446802603
  H         3.8435679271       -1.8408617649        3.0427395378
  H         2.9210145943       -2.9819940385        3.5286315642
  O         3.0124876796        1.1594226315       -0.8995674656
  H         3.7306012219        0.4464756269       -0.9912702863
  H         3.2334341501        1.8341428485       -1.5782929920
  O         2.9200114950        3.9761363547       -4.1394859487
  H         3.1618912288        4.1344888617       -3.2260178294
  H         2.5242380458        4.8283479610       -4.4564048069
  O        -1.1858832216        4.5315489075        1.4061543341
  H        -0.4889012365        4.4049240374        0.6563926845
  H        -1.6455466431       -4.7170941989        1.2699350436
  X        -3.1484686872       -3.7285170979       -4.1394755149
  X        -3.3970061040       -3.1349505898       -4.3226220509
  X        -3.3811480787       -3.7288141128       -4.6423110881
  X        -2.7601509105       -3.4506387338       -4.6223242961
  X        -3.7905433651       -4.3583776520       -2.1793744215
  X        -3.9250195862       -4.0345233974       -1.6134116212
  X        -4.2995865732       -4.3900678670       -1.7448990548
  X        -4.4482372768        4.7660199330        4.7653761340
  X        -3.5144667101       -1.1961968964       -3.7851819650
  X        -3.7592709981       -4.6777120657       -1.4340406842
  X        -3.9334146810       -1.0045112486       -3.4983036950
  X        -4.3673699110        4.1079570837        4.8595603920
  X        -4.0920124276        4.2840897337        4.4177855995
  X        -3.7819695724       -0.5906787500       -4.0067708133
  X        -3.3761204513       -0.6946912121       -3.3294099164
  X        -4.7795974948        4.1679540932        4.3353853595
  X        -1.0756579423       -3.0047221711        4.3696049939
  X         3.5168301873       -1.5734418978       -3.7858616367
  X        -4.8249128742        2.5687219856       -3.2630361354
  X        -3.4985880545       -3.4828353370        2.0397889039
  X         2.2142687810       -3.2874957612       -4.8333670198
  X        -3.4470500882       -3.5373356697        1.3651472919
  X        -0.8146293354       -3.6167875599        4.1920967576
  X         3.1659241751        3.8911940364       -4.3167976430
  X        -0.5219163920       -3.0646679924        4.4467808905
  X        -2.9717570223       -3.4211693360        1.5968717507
  X        -4.4043683847        2.1776192051       -2.7317003558
  X        -4.9305585789        2.5680315132       -2.5824356656
  X         3.1314704416       -1.7951510348       -4.1281952287
  X        -1.9204315417        4.0449996254        4.0777430559
  X        -3.3934578657       -2.8804890974        1.5202797813
  X         1.5961127144       -3.5945361411        4.8976710276
  X         2.1699182193       -3.9582346537       -5.0217656792
  X         3.4782315018       -1.2319805038       -4.3674235399
  X         2.7261234372        4.4086862469       -4.2904177662
  X        -5.0481960793        2.1020102056       -2.8306714224
  X        -0.7917037053       -1.9176332878       -2.0504990824
  X         4.9217469695       -0.8259671624       -1.5441658289
  X        -2.6587192635        1.3450908793       -2.6389436843
  X         3.0515126072        4.0658249065       -3.6687226675
  X         2.2406319415       -3.5647963152        4.6459020239
  X        -0.6770244379       -2.9242364897        3.8146911107
  X         3.9319891264       -3.6163211018        0.0456024814
  X        -1.3049578457        4.3436043450        4.0976464953
  X         2.9343632353       -1.2273820025       -3.7762276431
  X        -2.3895314409        0.8442725329       -2.5872084550
  X         3.8050080760        3.9159497188       -1.4279991629
  X        -2.1945201832        1.2134702192       -3.1160780394
  X         3.7293318604       -2.8948210636        2.7085388040
  X        -1.2745423937        3.7913398807        4.0318428650
  X         2.6713865103        3.7631596351       -4.1219678262
  X        -2.4465282146        0.6785482489        4.3187205291
  X         4.7302824275       -0.9604150408       -0.9131573394
  X         4.0315057207       -2.9251479180        0.0209191833
  X         3.8344881478       -3.3313907333        0.6654999064
  X        -4.8018295129       -0.6038191415       -0.8679172449
  X         3.5926841183        4.5737549976       -1.0557357623
  X        -0.2509110568       -1.7438035275       -1.6910891497
  X         3.2920625413        4.2888562611       -1.5862420750
  X        -2.0101432577        1.3963721684       -2.4004064413
  X        -0.2957958248       -1.3495553629       -2.2148517995
  X         3.2070724242       -2.8338596395        3.1331757547
  X        -1.4144467224        4.1532195702        3.4774870042
  X         3.6760337681       -2.2428634468        2.9057751147
  X        -4.4839110496        0.2696969839        3.4331651220
  X        -2.1451640341        0.9156491708        4.7151026759
  X         0.0896055595        3.0524071947       -4.2672812748
  X         3.4588131684       -3.3017450777        0.1020443070
  X        -1.7842637352        0.4911728258        4.3308915527
  X         4.6382316024       -0.4152556414       -1.0497054575
  X        -1.4141463521        4.9776360764        1.3218377564
  X        -0.6491618023       -1.3670049808       -1.6531698954
  X         5.0386107295       -0.0837183885        3.3668941192
  X         0.7020346210        2.9847320717       -3.7604273832
  X         3.3149081804       -2.6432677815        2.4988162938
  X        -3.3038813723       -0.6470867234        1.0160511989
  X         0.0548145808        3.0669686832       -3.5797348687
  X         3.1951778288        4.0156980850       -1.1165235819
  X        -2.0736848595        1.2012719047        4.1055127779
  X        -4.8537703639        0.1267079905        2.8850126574
  X         0.3933134945       -0.1595960972       -3.5720222081
  X         3.4702971430        2.5212749066        4.1921941159
  X        -3.5674998550       -0.3029547526        0.6429974515
  X         0.1731162294        2.5635553676       -3.7817846000
  X        -1.0595874340        4.5357419462        1.7135710321
  X         1.0065137242       -2.9580327104       -0.4560816865
  X        -1.3999702731        4.3055166295        1.3610533024
  X         0.9334987479       -0.0757947727       -3.5141418786
  X        -3.7487598895       -0.2426509637        1.3068447968
  X         4.9338516549        0.5754567054        3.2889023722
  X         0.7721444337       -0.0958981944       -4.1541337376
  X         1.6304155305       -3.0913840610        0.0134957980
  X        -0.4645496842       -1.9667084989        2.2808248834
  X         3.9127289177        2.6061918439        3.7194509902
  X        -3.0826538801       -0.0093757950        1.0407392487
  X         0.9974403051       -3.2067955352        0.1775928540
  X         0.6159548875        0.4962406171       -3.6552267736
  X         3.7982577742        2.0728949165        3.7630478308
  X        -0.8456288963        4.4894260397        1.0519329093
  X        -0.8382434473       -1.7025894416        1.7194525562
  X         1.1119032051       -2.6855569272        0.1744421915
  X        -0.1234516570       -2.0560306600        1.6854115141
  X         0.4950306181        4.0202891515       -0.2588662204
  X         3.3622999964        2.4576406474        3.4106498207
  X         3.1340979228        1.5158066518       -1.2607024779
  X         2.1476155438       -0.2835999476        3.7444712745
  X        -0.2523963932       -1.5026826042        2.0272618162
  X         1.1816627157        3.9441991260       -0.4004542472
  X         3.3556749353        0.8188714056       -0.9577238184
  X         0.5936023612        3.4253739110       -0.6033008783
  X        -0.3079479558        0.6985771014       -1.0466824031
  X         1.6255456136       -0.2515501755        3.9168888162
  X        -1.5878759353        2.0693938696        1.5570354278
  X         2.7193517762        1.0418737784       -0.9784865234
  X         1.7221891052       -0.4560155370        3.2729773059
  X        -1.7127980705        1.3963383801        1.5278491339
  X        -0.1777336059        1.3566254674       -1.1786552327
  X        -1.3828948764        1.5692759589        1.9393858689
  X         0.7629514781        3.6347557211        0.0028792145
  X         0.3801414186        1.0215767166       -0.9586808752
  X         3.0421933571        1.2946521445       -0.6085439847
  X         1.8473482467        0.2957334323        3.5320021909
  X        -0.1770646053        1.2128326996       -0.6383510957
  X        -1.0688614155        1.5302699063        1.3485622544
  X         2.2656837095        2.3119305767        1.9857132123
  X         1.8309581313        2.5806120258        1.5212602372
  X         2.2915695210        1.9553963685        1.3998750435
  X         1.8246902794        2.0121320566        1.8611889114
