     224
 Particles+Wannier centers. Iteration:1_150
  O         0.8192382599        0.4872590238        3.2407187156
  H         1.3526795186        1.1855529653        2.7858148903
  H         0.8764266237       -0.3324924157        2.7516726463
  O         0.6309661092        0.4986309175       -4.1054734817
  H         0.5257860151        0.6175383626        5.0007564625
  H         0.4136667618        1.3984380172       -3.7144287873
  O        -3.8866379986        3.2045788016       -4.5443722108
  H        -4.5794911270        2.9305254923        4.9188245279
  H        -4.1631966370        4.0087952035       -4.1119169305
  O        -3.3647785835       -0.4503345861        1.1282347428
  H        -3.0167146908        0.4383402352        0.8164401916
  H        -3.7822896944       -0.2992092262        2.0389238720
  O         0.2930008671        3.1772780856       -3.3740934765
  H         1.1354577194        3.5676656632       -3.5999399086
  H        -0.3996216427        3.5226214671       -4.0187176651
  O        -0.2780092859       -3.2358839815        4.7923447536
  H        -0.5190554523       -2.7356602698        3.9462090638
  H        -0.4689432557       -4.2107837276        4.5894024347
  O        -3.6599839877       -3.7929681733        1.1951850437
  H        -4.0828646034       -3.7189212409        2.1217491161
  H        -3.7705418147       -2.8793194120        0.8954198724
  O        -0.2252928653        0.4852771589       -0.9697078723
  H         0.7102546912        0.2065012473       -0.9781378349
  H        -0.5941791490       -0.3356324448       -1.3085064189
  O        -0.8533645913        4.2183348370        4.2809171820
  H        -0.8620831284        4.3000739423        3.2748029548
  H        -1.7551246650        3.7966528129        4.5440758641
  O         2.5823556782       -2.6842932226        4.4003256263
  H         1.6416288279       -2.8887219031        4.5444865245
  H         2.7212783306       -1.8526709820        4.9274573208
  O        -0.7916018669       -2.0189251001        2.3149237217
  H        -1.3765928520       -1.1643487631        2.3168699957
  H        -1.4207318187       -2.6124509927        1.8769031388
  O         2.2770618611       -3.2182728045        0.4435629892
  H         3.1310308965       -2.7599264430        0.0427122722
  H         2.4875640086       -3.2560067094        1.4204057752
  O        -2.1039656845        1.4536864097        3.4815014961
  H        -2.0212804042        1.4523688424        2.5160379901
  H        -1.2455932373        1.2599403390        3.8419900785
  O        -4.6404991253       -1.8579424689       -3.4866478502
  H         4.7617113259       -1.1700013351       -3.6552269767
  H        -3.8475637174       -1.2763929144       -3.2655113794
  O        -4.4108067684        0.1585576425        3.6158100907
  H        -3.6191988509        0.5901913566        3.9771408603
  H         5.0495813630        0.8953561955        3.6160895457
  O        -3.2475165545       -4.1389372680       -4.0637860173
  H        -2.3733330784       -3.7723863288       -4.2384303421
  H        -3.8380375258       -3.4383766592       -4.3619400422
  O        -1.9037330242        1.9320954172        0.7306919224
  H        -1.7003467425        2.9007871411        0.6493094164
  H        -1.0613314288        1.5408320063        0.4385770315
  O         2.3709577521        2.4043333961        1.7129229989
  H         2.9581657451        1.8629961300        1.1688141999
  H         1.5853690582        2.6919154906        1.0459905172
  O         4.5183411997        2.0216599514       -1.9493029349
  H        -4.7356086628        1.5784918508       -2.0368326387
  H         4.4451223720        2.7180872887       -2.5631521477
  O         3.3007291144       -0.2773084524       -4.2226444207
  H         2.3564364532       -0.0576131418       -3.8948289304
  H         3.4442332601        0.4454275344       -4.8524704666
  O        -0.4935663605       -3.2366020463       -0.6106422884
  H        -0.6564328075       -2.9070329779       -1.5091215246
  H         0.4257096241       -2.9544877181       -0.4315066680
  O        -4.5472999725       -4.9959343180       -1.2076955978
  H        -4.1780940825       -4.4000683014       -1.9449503717
  H        -4.1692024723       -4.6711735798       -0.3780807550
  O         4.6398675486       -1.6543321688       -0.4031559088
  H        -4.7546893047       -1.2137366074        0.1219897927
  H         5.0207252534       -1.8269482625       -1.2776883104
  O        -3.1991973000        0.9643187709       -2.7038240208
  H        -2.3893988737        1.1424442298       -2.1890862532
  H        -3.2275171130        1.7652408352       -3.3880347218
  O        -0.9537784999       -1.6146341612       -3.4302712553
  H        -0.6823778106       -0.6863911781       -3.7285858696
  H        -0.6440765439       -2.2232202830       -4.1387918460
  O         0.8140813241        3.1467804578       -0.3702455041
  H         1.4104409453        3.8239283816       -0.8232169746
  H         0.3097300941        2.6719688357       -1.0670417586
  O         3.6231449776        2.5085253273        4.0797190237
  H         3.1673353202        3.1557254770        4.7172554353
  H         3.1728443826        2.6162971608        3.2199153775
  O         2.7823612738        4.9983650018       -1.6475919979
  H         3.6357587729        4.9944061022       -1.2019136068
  H         2.2344838613       -4.4428740637       -1.2397883483
  O        -4.5723911165       -2.8142880138        3.5934932139
  H        -4.4049008852       -1.8607834584        3.7674848454
  H         4.6515143827       -2.9360157224        4.0608662412
  O         2.4339599886        0.2301921409       -0.8183335639
  H         3.1000342631       -0.4941181408       -0.8126043847
  H         2.8328102906        0.8320549302       -1.4990724449
  O         2.7447572868        4.6590398260       -4.2848733123
  H         2.7594162917        4.9353865467       -3.3428456687
  H         2.8178063560       -4.5824932059       -4.7834008006
  O        -1.1795292951        4.5662355606        1.4119269115
  H        -0.5689848405        5.0019573333        0.7988837772
  H        -2.0426605560       -5.0049084662        1.3863503838
  X        -3.5491074875       -3.7755059357       -4.2298152386
  X        -3.2813714160       -4.1495425060       -3.7475478864
  X        -3.2881581213       -4.3995751571       -4.2315000743
  X        -2.7829293513       -3.9427046565       -4.1607514542
  X        -4.7159981870       -1.9906937061       -3.2101039849
  X        -4.5795643041       -2.0304271941       -3.7454264945
  X        -4.2277454137       -1.5553854917       -3.3792842653
  X        -4.3546599789       -4.6739190260       -1.5771931081
  X        -4.9860123407       -1.5095986348       -3.5756304418
  X        -4.0580099023        3.6210097256       -4.3196870253
  X        -4.3652378709       -2.9676787340        3.7501498413
  X        -4.4391269905        4.8288239712       -1.2606052238
  X        -5.0243862653       -2.8747255488        3.8282168164
  X        -4.3441993673       -4.8172567944       -0.7858366664
  X        -3.6370822386        3.2819329812       -4.7058655004
  X        -4.4886055274       -2.3185258330        3.6737669238
  X        -3.8539477557        2.9620353111       -4.3170822538
  X        -4.8733197525       -4.9478949424       -1.1930250045
  X        -1.2656023746       -1.6315752615       -3.4390279074
  X        -4.6020304155       -2.8754419707        3.2664281493
  X        -4.2570061528        3.0732160239       -4.8694937314
  X        -0.4552656737       -3.1176110880       -5.0455253026
  X         2.9937167032        4.4686534875       -4.3588284725
  X        -3.8769732552       -3.7672190292        1.6485398443
  X        -0.7847359378       -1.9061161951       -3.7867485399
  X        -3.8255249753       -3.9848493608        0.9933811852
  X        -3.7138694200       -3.3076620910        1.0401246301
  X        -3.3392929070       -3.8474014762        1.2422081928
  X        -0.3835624971       -3.7123438045        4.6905350613
  X         2.7819529044       -4.9962290038       -4.5392322039
  X        -0.8020503127       -1.6774935311       -3.1507404803
  X         2.7622226097        4.8018376924       -3.8185293964
  X         0.0421969071       -3.2096944892        4.8044816735
  X        -3.1665219396        0.6941553841       -2.8538217598
  X        -3.1961758239        1.3595467996       -3.0453156698
  X         2.7567936622       -2.9260427218        4.5403333319
  X        -1.3192674424        4.0130932007        4.4047191730
  X         4.8519104475       -1.7403747469       -0.8547606918
  X        -3.4526800437        1.0227377951       -2.5070466939
  X         2.8147494081       -5.0441632392       -1.9797606001
  X        -0.4114580650       -2.9947417559        4.3696606426
  X        -0.8208673351       -1.1470197505       -3.5901145995
  X         2.4551237285        4.5448564441       -4.3316587273
  X        -2.7670607818        1.0645946882       -2.4355313240
  X         2.0969335736       -2.7848170891        4.4780705739
  X        -0.5710659429       -3.0657731609       -1.0879231921
  X         2.6436156498       -2.2618673078        4.6718945135
  X        -0.8431166798        4.5410178530        4.3944105845
  X         3.2106890154        5.0134287465       -1.4132753775
  X         3.2552242324       -0.5485947902       -4.4045117717
  X         4.4990160404        2.3944747499       -2.2956520009
  X        -4.5107932800       -0.0823926505        3.7953604118
  X         4.5572665031       -1.9359916488       -0.2722483543
  X         2.5062416184       -4.7393556401       -1.4361803654
  X        -0.6348033531        4.0201256594        4.3746978780
  X         5.0068914061       -1.4388041322       -0.1384540220
  X         2.6213823798       -2.6210952724        4.1026874180
  X         4.9588597030        1.8042616308       -2.0161327774
  X        -0.6743367897       -3.0839798213       -0.4214104695
  X        -0.0553919804        3.3669619298       -3.7072201723
  X        -4.0158101160        0.3760935964        3.8139456540
  X         3.5312886364       -0.2840362390       -3.9951459537
  X        -0.4869838267       -3.5489370336       -0.6168106627
  X         2.6322023957        4.7298614870       -1.5640242470
  X         4.5184179725        2.1488324582       -1.6810246704
  X        -4.3304681907        0.0943870984        3.2939105763
  X         3.3761900070        0.1054668741       -4.5522126888
  X        -0.8671928987        4.2433547451        3.7790064338
  X         4.4060980408       -1.4422785502       -0.4487463093
  X         0.7280004554        3.3882821898       -3.5068072847
  X        -1.6115442801        4.8461020647        1.3927593363
  X         0.2213712743        3.2622414929       -3.0857515130
  X         2.8444748102       -0.1631024541       -4.0440853698
  X        -1.1206034887       -2.3344074414        2.0854466970
  X        -4.7460545701        0.5389040682        3.6174369910
  X        -0.0102528845       -3.0824033658       -0.5319061151
  X         3.3851296154        2.8311664967        4.3945009206
  X        -3.1144714292       -0.6243296066        1.1803625673
  X         4.2830923245        1.8114613618       -2.0148020660
  X        -2.1561157607        1.7381916572        3.5514055386
  X         0.3174925248        2.8475754139       -3.4395626915
  X        -3.5709906847       -0.3602394864        1.5777799688
  X         2.7031475619       -2.9892976763        0.2501636569
  X        -0.7663832911       -2.1225803376        2.6401310006
  X        -1.0647945173        4.5740722730        1.7250049975
  X         3.9390070121        2.5950483126        4.0617982747
  X        -3.6054566533       -0.5672048684        0.9204913698
  X        -0.8657630534        4.8078314148        1.0987502053
  X        -1.0891429528       -1.5789215265        2.3204177532
  X        -2.3205193503        1.2200491910        3.5817711883
  X         0.3919590131        0.2893456607       -4.0155051613
  X         3.5643605698        2.2059690030        4.1771859758
  X         2.2738530462       -3.5139998982        0.3350805786
  X         2.3916964616       -3.2350358018        0.9555925061
  X        -3.2053987659        0.0068504164        0.9781304540
  X         0.9520906581        0.4242947124       -4.0480447479
  X        -1.6407455458        1.3430510119        3.6625007124
  X        -1.2510106588        4.2789579251        1.2807102868
  X         0.5229261883        0.9511768244       -3.9174350697
  X         2.0265710353       -3.0300506631        0.3978641586
  X        -0.5475650300       -1.9701115009        2.1432637659
  X         0.5730361542        0.5747643745       -4.6041466941
  X        -2.0470254469        1.4332676429        2.9891502952
  X         3.3976101084        2.5768293352        3.6467268660
  X        -2.1372889012        1.8247988476        0.5399705561
  X        -0.4336124494        0.0516339541       -1.1463353866
  X        -1.8132517707        2.4212334244        0.6789696356
  X         2.7657796736       -0.1530890748       -0.8290967137
  X        -1.9295775133        1.8662071263        1.0556206252
  X         1.1146168394        3.4806043050       -0.6139076514
  X        -0.2696902589        0.7124629884       -1.1826890327
  X         2.6304103202        0.5350139593       -1.1779540701
  X        -0.3215734446        0.5296082662       -0.6606245160
  X         0.5717362011        2.8963670303       -0.7366584733
  X         2.1240931713        0.1283536239       -0.9132101017
  X        -1.4645275341        1.7359297242        0.5850084919
  X         0.6103226907        3.3096868111       -0.2340814923
  X         0.9201056427        0.4451753483        3.5452521367
  X         0.2433321702        0.3497019260       -0.9750722118
  X         2.4711107723        0.3708348704       -0.5508142060
  X         0.5235414513        0.5725384874        3.2167578093
  X         1.0013147971        2.9446081206       -0.1667735248
  X         0.8669072760        0.0560652418        2.9755080142
  X         2.5325008240        2.6472668622        1.8344425703
  X         2.2388074700        2.1926801869        1.9345171261
  X         1.0973555926        0.8279235624        3.0026014101
  X         2.6799752921        2.1221112540        1.4189891306
  X         2.0058192645        2.5439410218        1.4020039381
