     224
 Particles+Wannier centers. Iteration:1_3000
  O         1.2545899050        0.2067126576        2.7392113490
  H         2.1073028293        0.5947517030        2.3681513336
  H         0.6172016202        0.7182849344        2.2163126395
  O         1.2646755783        0.3775570998       -4.5219181292
  H         1.2830171145        0.2410767198        4.5832174468
  H         0.8627494003        1.3246999400       -4.4509957426
  O        -3.5234282077       -4.4163125216        4.8467050630
  H        -4.3129005811       -4.0881673765        4.3294860410
  H        -3.0100043534       -3.6434529875       -4.9669271986
  O        -4.4933076638       -0.7185722866        2.6176694423
  H        -3.5714687391       -0.8534746328        2.3141126768
  H        -4.4644469415        0.0171716161        3.3380560428
  O         0.3761172625        2.9620617903       -4.1267299803
  H         0.9189630052        3.7680530334       -3.9581804877
  H        -0.2332925469        3.3202312489       -4.8104160154
  O         0.1381626952       -2.8075092679        4.0255486821
  H        -0.4962627949       -2.2825815968        3.5883559331
  H        -0.1346612122       -3.7826813129        3.8692446842
  O        -3.4168411078       -3.5416088720        1.2982047953
  H        -4.2352153446       -3.5902357380        1.9434118799
  H        -3.8323144994       -3.5107306593        0.3742214629
  O        -0.2063055276       -0.3117991277       -0.3933059186
  H        -0.5937635227       -1.0372380964       -0.9182304006
  H         0.5883031227       -0.7156867306        0.0018896515
  O        -0.8182297900        4.6984718223        3.9649916343
  H        -1.0609158497        4.5822133788        2.9985597031
  H        -1.6716317055        4.7467224999        4.4126345513
  O         2.8501725141       -2.5049020515       -5.0338326750
  H         2.0198746962       -2.0551360645        4.9513015370
  H         3.4983081450       -1.8865243708       -4.5573242551
  O        -1.8239826686       -1.5650484953        2.2756990816
  H        -2.2550694722       -2.4340014314        1.9286662815
  H        -1.5394664529       -0.9545080702        1.5559978221
  O         2.1808844160       -1.9469626407        0.6503232042
  H         2.7914879691       -1.4243171447        0.0974699287
  H         2.5389567934       -1.8896301862        1.5176371659
  O        -1.9483903428        1.0057858662        4.0355968794
  H        -1.6205376498        0.1030006391        4.0895673052
  H        -1.7174599988        1.3714446719        3.1348517256
  O        -3.2941075124        0.9089184832       -2.9776276556
  H        -3.0474299626        1.8730326628       -3.0814584214
  H        -3.2616939909        0.7385698698       -2.0088621739
  O        -4.5369857483        1.3860619413        4.3508526911
  H        -3.5416190144        1.3685633298        4.4137549491
  H        -4.9513535673        2.2491983615        4.3451890320
  O        -3.1744693264       -1.8712878101       -3.5515345405
  H        -2.1677015521       -1.7628690905       -3.7220505435
  H        -3.5201249542       -0.9757081606       -3.7305216607
  O        -1.7142048590        1.7301367049        1.3635457618
  H        -1.6907740213        2.7115315184        1.3340010451
  H        -1.0427308978        1.5089366395        0.6969980768
  O         3.4233521846        1.5248256515        1.5846421021
  H         4.3038898213        1.1504217710        1.8534322551
  H         3.5102444802        1.4634339982        0.6023303931
  O        -3.8400685242        4.0611851853       -2.8347719199
  H        -2.9483103821        3.7832573786       -2.4882945098
  H        -3.7677302201        4.5797604467       -3.6473615379
  O         3.8548822779       -0.1309058271       -3.5536715045
  H         2.9966790813        0.2575646129       -3.8330521017
  H         4.5004663927        0.3704686606       -4.0884221296
  O         0.0134093774       -4.1397174999       -0.3290229218
  H         0.4404183842       -4.2970723751       -1.1722833349
  H         0.5933304349       -3.4754109435        0.1124688319
  O        -4.0311179406       -3.5338937601       -1.3643480497
  H        -3.6003837589       -2.9419306127       -2.0051410477
  H        -4.0549258790       -4.4096691303       -1.8166809905
  O         4.9118369890       -0.8932132302       -0.2714222409
  H        -4.3754565423       -0.7270648243        0.2502695544
  H        -4.9094107136       -1.6921380006       -0.7737562066
  O        -1.2054815546        3.6445808022       -1.9308614886
  H        -0.5232210761        3.3245413945       -1.2276070022
  H        -0.7955266400        3.3297848219       -2.7944338335
  O        -0.3897807417       -1.7446585708       -3.6645746213
  H        -0.1713824479       -2.3661280601       -4.3864059957
  H         0.0689523895       -0.8956829402       -3.9628589904
  O         1.4453421707        3.1126057628       -0.8567417352
  H         1.9310425298        2.3912735623       -1.2615351789
  H         2.1120077887        3.8093842282       -0.5347892557
  O         3.8089162480        3.6521301276        3.9533075483
  H         3.1240315346        4.1186279063        4.4983576449
  H         3.3745978469        3.1559581550        3.2244012586
  O         3.1093636439       -4.4391749710       -0.5027747167
  H         2.8993862384       -3.8106050281        0.1137571820
  H         4.0650837166       -4.2127490786       -0.6920078329
  O         4.6330821536       -3.0728085754        2.9189638771
  H         4.9713474303       -2.1129272408        2.8230941731
  H         3.8769064002       -2.9916827343        3.5379533650
  O         3.9654401344        1.6257213311       -1.1137455604
  H         4.3051728079        0.8845722071       -1.6572299493
  H         4.6001358809        2.3660777824       -1.4312937703
  O         2.2182307208       -5.0269357368       -3.9310086151
  H         2.6446419962        4.8910356397       -3.1061769412
  H         2.4108827571       -4.1017602364       -4.1686107380
  O        -1.5575843317        4.6193038299        1.3702993122
  H        -0.9073354448        5.0054365359        0.7516126010
  H        -2.2905990011       -4.8563096640        1.4259187457
  X        -3.2622503078       -3.9977612357        4.9838374241
  X        -3.6252816552       -4.5566980024       -4.9797269539
  X        -3.2807491398       -2.0718347108       -3.7704385400
  X        -3.9223123103       -4.2355172970        4.5892220850
  X        -3.7758102256        4.3183236352       -3.2582718800
  X        -3.3379072913       -4.5828068721        4.6542147786
  X        -4.0390081789       -3.9769481703       -1.5935907103
  X        -3.2189580800       -1.9424808357       -3.2295643272
  X        -2.6823718974       -1.8092079531       -3.6366248337
  X        -3.8033141980       -3.2365737299       -1.6855518701
  X        -4.3320337301       -3.4375064858       -1.3428417250
  X        -3.9377507145        4.2744042044       -2.6139537141
  X        -3.3551442924       -1.4042086353       -3.6487976487
  X        -4.0063797120        3.8095068064       -2.8857314597
  X        -3.8712815406       -3.5526050772       -1.0733663225
  X        -3.3767768297        3.9235151154       -2.6913657251
  X         4.8763023653       -3.2406015314        3.0679249008
  X         2.7898673088       -2.7657364596       -4.8409424057
  X         2.3109839665       -4.5532392559       -4.0286511353
  X        -0.7324401473       -1.7020164150       -3.6957719550
  X        -3.6286660713       -3.5152849013        0.8452379337
  X        -3.8136107460       -3.5658272044        1.6068546605
  X        -3.5895040336        0.8835746476       -3.0515535207
  X         2.3658045823        4.8975302261       -4.1486306626
  X        -3.2507873923       -3.8296279996        1.3178788457
  X         3.1659390954       -2.1849739429       -4.7925592303
  X         4.5572887477       -3.1750999509        2.6314900369
  X        -3.1613731245        1.4137656840       -3.0180446722
  X        -3.2394778573       -3.2572186565        1.3671220362
  X         2.4526290639        4.9902417046       -3.4860487259
  X        -1.2721306628        4.7230950444        4.1950209440
  X        -0.2668754207       -2.0646458702       -4.0242100804
  X         4.7832119029       -2.6121359188        2.8819936878
  X         2.4210748070       -2.2486548017        5.0158007327
  X        -3.0807784025        0.7336976890       -3.1068674135
  X        -0.2749582678       -1.8297829435       -3.3938550200
  X         1.9013299593        5.0183398248       -3.8870997844
  X         3.8545503042       -0.4405099619       -3.6699433781
  X        -3.2710574057        0.8343740464       -2.4549950372
  X        -1.5160939727        3.5122551568       -1.9060815314
  X         4.2423632531       -3.0396226951        3.2228713047
  X         0.0921112116       -2.7560931680        4.3552588023
  X         2.9726896641       -2.5609922469        4.7656596225
  X         3.6120822052       -4.3237126467       -0.5915074700
  X        -4.6434705779        1.2503814356        4.6081996802
  X         4.1885136273        0.1344124061       -3.8349831173
  X        -0.6803247637        5.0046742719        3.9875066383
  X        -0.1669327693       -1.3189867472       -3.8243411501
  X         3.9678308678        3.8664821292        3.8238503562
  X        -5.0361515352       -1.3180579590       -0.5328850707
  X        -0.9461607789        4.6304897161        3.4964705837
  X         3.9063540803       -0.0668306647       -3.2468166932
  X        -4.5989314764        1.2158202989        4.0622685202
  X        -1.1779979936        3.9434529795       -1.9367008507
  X        -4.0487906485        1.4187165866        4.3893029265
  X        -0.9991794248        3.4769890396       -2.3656405619
  X        -0.0025242442       -3.2834551692        3.9333121093
  X        -4.6155090738       -1.0244553066        2.7323149231
  X        -0.2064929741       -2.5365786977        3.7918333325
  X         2.9586702655       -4.3677684629       -0.7585980118
  X        -2.0056873698       -1.9871766220        2.0799199091
  X        -1.9293805930        4.9329072021        1.3847283569
  X         3.4360942912        3.8773023122        4.2247210322
  X        -0.6649808344        4.4394868677        4.0831844608
  X         3.4213865097        0.0766703849       -3.6969861372
  X        -4.7219138286        1.8439712144        4.3337944035
  X         3.9569627158        3.4290932943        4.1347116208
  X        -0.2458629733       -3.9995149023       -0.3834549237
  X         3.0887676639       -4.7367696148       -0.3836495297
  X        -4.4637477555       -0.3768605431        2.9798550599
  X         0.4156141375       -2.7511315924        3.9094334912
  X         0.0649861800        3.1408792624       -4.4842400259
  X        -4.0170939761       -0.7788892602        2.4677110851
  X         4.6798508496       -0.9722220220       -0.0850766521
  X        -2.2864966671        1.0040774071        4.0652014404
  X        -4.7514233840       -0.8124681227        0.0069617159
  X         0.2477403886       -4.2214035922       -0.7723419416
  X        -2.0787005094       -1.4140518834        2.3873821592
  X         3.0002376651       -4.1056391249       -0.1630981030
  X         0.6618712872        3.3612264441       -4.0502202619
  X        -0.8770200362        3.4637772359       -1.5734333376
  X        -1.6518149597        4.3229638059        1.2669667317
  X        -1.5794033781       -1.6195469560        2.4726085327
  X        -1.2350875670        4.8184340523        1.0608350626
  X         0.1854966056        2.9429674838       -3.8626788225
  X        -4.6401254655       -0.5881164346        2.3839790240
  X        -1.7758583305        0.5222354783        4.0466193010
  X         0.0052794628       -4.4111077128       -0.1472639072
  X         4.8982425039       -0.6691712589       -0.4744496799
  X        -1.7925641039        1.1632967357        4.2388731026
  X         4.2948370024        2.0129269688       -1.2720602081
  X         3.5572594209        3.3999866133        3.5785531768
  X         0.3256164878       -3.7945181260       -0.1021312147
  X         0.5414265321        2.6926827365       -4.2338952326
  X        -1.4184419846        4.6226947481        1.6859366750
  X        -1.6761915574       -1.2712913380        1.8777337392
  X         4.1441342311        1.2424301220       -1.3853368405
  X         1.0421062271        0.1541774979       -4.3988964927
  X        -1.8259141909        1.1714313111        3.5780202707
  X         1.5761357873        0.3832797275       -4.4094991625
  X         3.6794404358        1.7004071552       -1.2212132006
  X         1.0668231622        0.8392130242       -4.4934963663
  X         2.2110327931       -2.2535506318        0.5613619546
  X         1.2765342200        0.3102541587       -5.0237138528
  X        -0.4050138505       -0.7023651659       -0.6672935684
  X         4.0072809392        1.5747071374       -0.7884909014
  X         2.3759795642       -1.9050745996        1.1121569639
  X         2.5017880193       -1.6720521189        0.3670443330
  X         1.2639007238        3.2453636995       -1.0738765531
  X        -1.6988363556        2.2295463750        1.3467422205
  X         1.8011851516        3.4569043680       -0.7029269952
  X         1.8913634447       -1.8099544289        0.6384507406
  X        -1.9794485467        1.6344302067        1.2586766745
  X         1.7137637142        2.7397618925       -1.0710309366
  X        -0.1300557759       -0.0873261685       -0.5745654930
  X        -1.6068104204        1.6360464020        1.6697343289
  X         0.2105010098       -0.5286618059       -0.1973871150
  X         3.8855036040        1.3294135799        1.7228536061
  X         1.3123501955        3.0010930997       -0.6114957142
  X        -0.4043854259       -0.2654943234       -0.1488326477
  X        -1.3514362934        1.6171070299        1.0198688060
  X         3.4194508095        1.8260838602        1.6692674543
  X         3.4596366523        1.4891910538        1.0913604321
  X         1.2249598492        0.2882261754        3.0636044199
  X         1.2322662329       -0.0823948999        2.6489555656
  X         3.1810628749        1.3092317346        1.6998054771
  X         1.6811217467        0.3982310394        2.5598481442
  X         0.9093223968        0.4842036276        2.4631234401
