     224
 Particles+Wannier centers. Iteration:1_850
  O         1.8478885610       -0.0121784142        3.5210212004
  H         1.9292640080        0.6308106721        2.6873988654
  H         1.1472565774       -0.5515980899        3.3093046184
  O         0.9412672259       -0.1291527861       -4.0866914826
  H         1.3140310166        0.0177851133       -4.9934693609
  H         0.7623595561        0.7816557075       -3.7338448556
  O        -4.1197670712        4.3104629606        4.4122773112
  H        -4.7966159127        3.8923226206        3.8744707363
  H        -4.2936028848       -4.8701380697        4.6918328515
  O        -3.3045439309       -0.5254978408        0.9662705965
  H        -2.7392517938        0.2672080214        1.1572019828
  H        -4.0005607281       -0.3862052468        1.6924940881
  O         0.0804878709        2.8379613875       -3.6942081562
  H         0.8575132530        3.2611786719       -4.1604256425
  H        -0.6532990900        3.1902407593       -4.3323929362
  O        -0.5304076659       -3.4792215997        4.3763937988
  H        -0.3845710125       -2.9992785987        3.5560323295
  H        -0.7552497587       -4.3854582640        4.0878370613
  O        -3.3015495236       -3.3291319483        1.7831740343
  H        -4.1859819854       -3.4616323426        2.1923263510
  H        -3.3153820593       -2.4689552602        1.2683107855
  O         0.1768748057        0.8963010972       -0.9155327536
  H         1.0890234996        1.2609474363       -1.0641888011
  H         0.2706624147       -0.0515213441       -1.0585766625
  O        -1.2227104243        3.9635802654        4.0555554720
  H        -1.0087652890        3.9519880007        3.1250477137
  H        -2.2044243421        3.8908892818        4.0512924193
  O         2.0528556018       -3.6248908242        5.0430673159
  H         1.0816645921       -3.6302304747        4.9145277612
  H         2.2798955229       -2.9210522143       -4.4389356525
  O        -0.3681486803       -1.7188646208        2.1168175241
  H        -1.2282319410       -1.3992048791        1.6586138867
  H         0.1237898741       -2.3611584752        1.5270877993
  O         3.6117268696       -3.1044133860        0.2034449915
  H         4.1120414968       -2.4372571509       -0.2847152678
  H         3.9140555961       -3.0854727266        1.1278463081
  O        -2.5340249814        0.7638202729        4.2796471102
  H        -1.9931903044        1.2585757027        3.6362434268
  H        -2.1747396910       -0.1235614989        4.3813824150
  O        -3.6191791786       -0.8654557370       -3.3420979491
  H        -3.9478508866       -0.5281958332       -4.2115582648
  H        -3.0201426247       -0.1912710528       -2.9870936941
  O         5.0477177183        0.1497152163        3.3260367870
  H        -4.1761509376        0.5129629956        3.5066372867
  H         4.4849571605        0.9566416922        3.3001343110
  O        -3.3399848227       -3.3512919839       -4.6044838280
  H        -2.4852335376       -3.4086796713       -5.0368951714
  H        -3.2444804146       -2.5793467453       -4.0004417698
  O        -1.3358876193        1.4926337369        1.4596106749
  H        -1.4474355033        2.3980275569        1.2514177060
  H        -0.7249936448        1.2107425871        0.6520602044
  O         1.8222566984        1.9896070753        1.5970703910
  H         2.2687764609        1.8596671328        0.7135407078
  H         0.9316659619        2.3135902648        1.4797946222
  O        -4.9102626135        2.6168024783       -2.9436698333
  H        -4.1718839270        2.0754245658       -2.6572014372
  H        -4.6143076482        3.2463345937       -3.6685191595
  O         3.3863459886       -1.5805327060       -3.8489704429
  H         2.5647158777       -1.0373440084       -3.7310235306
  H         3.8310816197       -1.1731025421       -4.6061049064
  O         0.8466538736       -3.2073059915        0.2696148802
  H         0.5842213351       -2.7083653418       -0.5750950001
  H         1.8314790562       -3.2698863275        0.2255539341
  O        -3.6650815230       -4.3658298549       -1.9277361896
  H        -3.4769388967       -4.4620558749       -2.8601830638
  H        -3.4056837465        4.9027648881       -1.4585233037
  O         4.7223137908       -0.8150551205       -0.9756659365
  H        -4.5396788599       -0.5643682444       -0.4207722844
  H        -4.9484057967       -0.9083574844       -1.8672033755
  O        -2.1068978212        1.2693454053       -2.6791595058
  H        -1.3075010776        1.3678920936       -2.0994034133
  H        -1.9871964403        1.8302398578       -3.4181220672
  O        -0.5111232408       -1.7526549073       -2.0079849806
  H        -0.3884427418       -1.4273769100       -2.8956681405
  H        -1.3908841754       -2.1372983261       -1.9876542915
  O         0.8422396489        3.8746304767       -0.4480927447
  H         1.6681779301        4.1461570873       -0.9199103590
  H         0.2522977797        3.8770788205       -1.2014624963
  O         3.7982551282        2.7748878597        3.7107063093
  H         3.3678116384        3.1369825012        4.5738223984
  H         3.0369584577        2.6726654193        3.0602867124
  O         3.6391707904        4.3144034552       -1.3121574828
  H         4.4443104193        3.8845332206       -1.7017611723
  H         3.9118146580       -4.9356279085       -0.9457394723
  O         3.6884912652       -2.7591215559        2.9985447282
  H         3.6464134764       -1.8448528350        3.2678607427
  H         3.1525325673       -3.1950944132        3.6908441064
  O         2.8158874960        1.4022352867       -0.7989890025
  H         3.2031503767        0.5010791667       -0.8358260741
  H         3.3650547953        1.8126428749       -1.4978298055
  O         2.6360810200        3.9758783497       -4.2775816889
  H         3.2941869442        4.0789830954       -3.5785315027
  H         2.3909684891        4.9340681570       -4.4401904199
  O        -1.2006059983        4.5947842991        1.2820219198
  H        -0.4612300545        4.9190322275        0.7618456868
  H        -1.8143774010       -4.7612902085        1.4057448604
  X        -3.3635717772       -3.6137089963       -4.4215327888
  X        -3.2836313889       -2.9563023383       -4.2986149093
  X        -3.5557225783       -3.2959745242       -4.8131141610
  X        -3.5579638763       -4.4465648369       -2.4177242535
  X        -2.8889152094       -3.3736110620       -4.8283064157
  X        -3.9666178062       -4.3528580111       -1.9040249766
  X        -3.4818175869       -4.1451007457       -1.8276175166
  X        -4.2360535473        4.7870744601        4.5250230354
  X        -3.5179936173       -4.8226775276       -1.6978263805
  X        -3.4590842066       -1.1446069501       -3.4068832113
  X        -4.1439760953        4.1553057164        4.6837348822
  X        -3.8717436564       -0.8731605461       -3.1476188252
  X        -3.7811769547       -0.6749252187       -3.7997591609
  X        -3.8254964314        4.2957060403        4.2659210307
  X        -3.3117781799       -0.5222838170       -3.1777866203
  X        -4.7371076122        2.9323904652       -3.3147304447
  X        -4.4768270467        4.1295680967        4.1226706863
  X         3.2758452212       -1.8719740496       -3.9486375260
  X        -0.7880047123       -3.3641132633        4.5198788904
  X        -3.7771990391       -3.3847289447        1.9825286806
  X         2.1461107611       -3.2634252779       -4.7338899740
  X        -3.2427993875       -3.5697414539        1.5868354313
  X         4.9790820080        2.4373509886       -3.0563303551
  X        -4.5080339192        2.3428533937       -2.8096700471
  X         3.5623988284       -1.5482797833       -3.6053864149
  X        -3.1153840014       -3.2796670587        2.0120741346
  X        -0.2331235606       -3.4998096417        4.5355829032
  X         3.6144731449       -1.3565079523       -4.2577603874
  X        -0.6399141165       -3.9386056300        4.2168725215
  X         2.1321143840       -3.9265153851       -4.9070295598
  X        -3.3318095881       -2.8877154283        1.5162433956
  X         1.5672449345       -3.6151913981        4.9872455057
  X         2.9820364152        4.0258139886       -3.9083132430
  X        -4.9858886239        2.8041106402       -2.6915749735
  X        -0.9849464390       -1.9509734454       -2.0074226781
  X         4.0629207538        4.1054788471       -1.5011527171
  X        -1.7255444574        3.9188726831        4.0437384362
  X         2.2011481838       -3.5527653739        4.7588575721
  X         3.9893394934       -2.8489793286        3.0288691474
  X         4.9384730431       -0.8571039707       -1.4359760837
  X         2.5211308668        4.4441985787       -4.3579327237
  X         2.9723780183       -1.2935758117       -3.7966969305
  X        -0.4557120893       -3.2403338537        3.9478494074
  X        -2.3596840451        1.3853067248       -2.5310524401
  X         2.7968825516        3.8454253617       -4.5572354027
  X        -0.4601790363       -1.5943683626       -2.4802453827
  X         3.7959126653        4.7553046211       -1.1272939392
  X        -2.1348158418        0.9587403949       -2.7806104955
  X         3.4152102836       -2.9832403355        3.3465495933
  X        -1.1636204412        4.2707564675        4.1324871096
  X        -0.3061091632       -1.9842388111       -1.9497638612
  X         3.5331233861        4.1402694396       -1.0874533821
  X         3.6942552746       -3.3871212713        0.0840787829
  X        -2.8308135069        0.7265494464        4.1434291917
  X        -2.0310396087        1.5705631047       -3.0763061441
  X         3.5564992021       -2.7870362671        2.7115392649
  X        -1.0932450741        3.7233377767        4.2299519999
  X         4.6394137608       -1.1133970657       -0.8775085582
  X         2.3756225454        3.8246146083       -4.1637335883
  X        -2.3296530289        0.2934865729        4.3153869880
  X        -4.9572016711       -0.6810478217       -0.6992662661
  X         3.7824509394       -3.0835290444        0.6760380504
  X        -2.5081989817        0.8974907271        4.5506951036
  X        -0.3092363542        3.0091734611       -4.0084933502
  X         3.8695130239       -2.7551913920       -0.0350432707
  X        -0.5114079170       -1.5012054726       -1.8213736355
  X         4.9675089078       -0.0289593622        3.5674374717
  X         3.6614466135       -2.2713144666        3.1452916457
  X        -1.7016402739        1.3298963992       -2.3942775298
  X         3.4537136095        4.3734305390       -1.5544228964
  X        -1.5128818946        4.9878295230        1.3364495664
  X        -1.1120449548        3.9341170178        3.5744151043
  X         4.5071606991       -0.5658001976       -0.9759451127
  X         0.4735111229        3.0522502169       -3.9350924747
  X         3.2854563058       -3.0334339858        0.2045070573
  X        -3.4585431539       -0.4857057218        0.6741073995
  X         3.5813675275        2.9352058349        4.1299408926
  X        -4.5991434153        0.3471890832        3.4196009111
  X         0.0465896397        2.9723826694       -3.4123067542
  X        -2.2392081535        1.0049871463        3.9430521027
  X        -5.0224767934        0.0278392892        3.0211126100
  X        -3.1438677433       -0.8000860783        1.0337606918
  X         0.6656357356       -0.2835143821       -4.0966973626
  X        -0.8240047988        4.7763934077        1.0160824127
  X         0.1037498143        2.5184626872       -3.7328644311
  X        -3.6575669249       -0.4584127273        1.3327566620
  X         4.0120838253        3.0062330754        3.6082953176
  X        -1.3443801558        4.3670875378        1.1219002469
  X         1.1918291351       -0.2591286970       -3.9145060271
  X         3.9047075158        2.4715186178        3.7499430906
  X         0.7233145397       -2.9459676320       -0.1667043133
  X         4.7630147923        0.5651836709        3.3066114614
  X        -3.0155733665       -0.1286192274        1.0594955326
  X         0.8583260395        0.3471356004       -3.9093016741
  X        -0.4563855415       -1.8852789789        2.3848172309
  X         1.3390206030       -3.2319006599        0.2426589854
  X        -1.0919963568        4.5185014396        1.5800884931
  X         0.7270702487       -3.4886512743        0.2435571117
  X         1.1131213852       -0.0473148788       -4.5387619290
  X         0.7507485445       -3.0101247410        0.5403942348
  X         0.5197013085        3.8794949953       -0.8526530049
  X        -0.8130295473       -1.5689207184        1.8631611900
  X        -0.1474602757       -2.0322891269        1.8128912431
  X         3.4020969062        2.7398590999        3.3828895266
  X         1.2669121728        4.0178557692       -0.6892338406
  X         0.7480104052        4.1001751420       -0.2493697866
  X        -0.1897551956       -1.4675491028        2.1543749659
  X         3.1014693692        1.6235987971       -1.1572618715
  X         2.0971086901       -0.1898696973        3.5258096761
  X         0.8716907959        3.5802077233       -0.3668704670
  X        -0.0304848979        1.0014660269       -1.1493444102
  X        -1.6290207760        1.3386903912        1.4161162389
  X         3.0033047593        0.9363752509       -0.8140441930
  X         1.7580375293        0.1455211657        3.8047060480
  X         1.4657766570       -0.3019460751        3.4004528559
  X         2.5007951730        1.3843206649       -0.9098883356
  X        -1.3993419756        1.9760522524        1.3471941916
  X         0.2397786096        0.3976470925       -0.9865091458
  X        -1.1866897293        1.4748210779        1.7310710685
  X         0.6300714928        1.0739096099       -0.9921682245
  X         2.8631292347        1.5313046387       -0.5000034768
  X         1.8762024734        0.3000285940        3.1254145178
  X        -1.0335851477        1.3542525709        1.0734214951
  X         0.0837597618        0.9436501250       -0.5902531136
  X         1.9837128669        2.2102905810        1.7621358749
  X         2.0234475379        1.9326836199        1.1525728379
  X         1.3488810376        2.1552041098        1.5198361418
  X         1.8053514540        1.6786160038        1.7528265183
