     224
 Particles+Wannier centers. Iteration:1_1250
  O         1.2631428644       -0.6132396875        3.1337154578
  H         1.5879369135        0.1949094970        2.7957206545
  H         0.4527174486       -0.9035360791        2.6480067713
  O         1.2829976398       -0.4994383229       -4.3085968120
  H         1.2504242357       -0.7023406619        4.7494542746
  H         1.0196112983        0.4421904594       -4.2916451993
  O        -3.7167739757        4.5305476643        4.7801633792
  H        -4.4354605999        4.1281372346        4.2213772026
  H        -3.9184116775       -4.6181050132        4.8818538946
  O        -3.5437563678       -0.4804733423        1.4101157926
  H        -2.9668623470        0.3102760068        1.3452016520
  H        -4.1800536892       -0.2659015533        2.1953431568
  O         0.6008250530        2.4706789263       -4.4717455742
  H         1.4200580792        3.0225071395       -4.6214039952
  H        -0.0463757616        2.7811363900        4.9337914104
  O        -0.0299659535       -3.1969810414        4.5109747221
  H        -0.4566188406       -2.5987539498        3.8889280349
  H        -0.4716445422       -4.0299878070        4.3557388814
  O        -3.7710538231       -3.6454278700        2.0931800951
  H        -4.5034029584       -3.3910507033        2.7366139047
  H        -3.3219863428       -2.7648764543        2.0636951374
  O         0.2922518833        0.2911050502       -0.7817532935
  H         1.2164705825        0.3726487687       -1.0674290138
  H        -0.0090630910       -0.5878940784       -1.0415871290
  O        -1.2403324326        3.7843529764        3.9099883574
  H        -1.2217274755        3.8076489337        2.8801442359
  H        -2.1118448895        4.1034676787        4.2066499887
  O         2.7525657361       -3.1698505162       -4.8508849022
  H         1.7725523776       -3.0484015684        4.9453092181
  H         3.0505678795       -2.3631857583       -4.3442490035
  O        -1.0501747100       -1.6088291676        2.3334736599
  H        -1.8648438141       -1.0217049321        2.1200584900
  H        -0.8259918383       -2.0408299485        1.4250312188
  O         2.5167595090       -3.0861972606        0.4982951408
  H         2.9290554076       -2.1961274391        0.3824224860
  H         2.9802346272       -3.3656856213        1.2956178001
  O        -1.9525941348        0.8347015571        3.7773955633
  H        -1.5003615359        1.2366097698        3.0078087917
  H        -1.3366004742        0.8904508609        4.5085684362
  O        -3.3773120571       -0.1341134217       -3.6122356369
  H        -4.2953004249        0.0118276535       -3.2285243818
  H        -2.7511750655        0.2975741700       -3.0158004248
  O        -4.5760159483        0.5275706782        3.9513379227
  H        -3.6335125568        0.8447594007        4.1275632925
  H         4.9815470758        1.3427720742        3.7539124972
  O        -3.5246071554       -2.8077526870       -4.4566232606
  H        -2.7254913021       -2.3730226387       -4.7524112804
  H        -4.0528532341       -1.9632015702       -4.3430095568
  O        -1.2082495752        1.4538622531        1.2560015952
  H        -1.1866023134        2.3790863207        0.9742580143
  H        -0.5350827305        0.9744402672        0.7552273338
  O         2.1374085880        2.7579469275        1.3931236789
  H         2.6892370598        2.1725253936        0.8212330808
  H         1.7290586712        3.3344969614        0.7314789005
  O        -4.3812614941        3.2103123506       -2.4930558781
  H        -3.6214303565        2.6054915665       -2.5032284011
  H        -4.2681652083        3.6656641757       -3.3453204627
  O         3.9819603910       -0.6224940058       -4.1761628378
  H         3.0997762070       -0.2867124493       -4.0068398473
  H         4.3956384371       -0.1292189242       -4.9014743370
  O        -0.2786708793       -3.5046544793       -0.0127511933
  H        -0.2430477705       -2.8857666557       -0.8072493490
  H         0.6892328224       -3.6395483630        0.0137895987
  O        -2.5357286079       -3.7079977678       -2.0343487252
  H        -2.9760190191       -3.5182159770       -2.9081885144
  H        -2.4396373716       -4.6474324362       -1.9408021756
  O         4.6503983858       -1.1992324682       -0.5321785421
  H        -4.6997533400       -0.8818765663        0.0285683230
  H         4.9974733659       -1.7935934160       -1.2317008977
  O        -1.5458321321        1.8123916290       -2.1910513204
  H        -1.1308631939        1.3311609967       -1.4784531244
  H        -0.9376374794        1.6866597008       -2.9515244362
  O        -0.4441112597       -1.8282539584       -2.3808170179
  H         0.2012937945       -1.5999131399       -3.1010374088
  H        -0.9503660025       -2.6832222559       -2.5978811254
  O         0.7697938795        4.0474035940       -1.2520144371
  H         1.4694077064        4.5989231227       -1.6595802073
  H         0.2741740261        3.7180512257       -2.0418858456
  O         4.1195365669        2.9669866195        3.3876842062
  H         3.6506960981        3.2639514941        4.1850515279
  H         3.4800557165        3.0855940319        2.6615546141
  O         3.6766894575       -4.8109207773       -1.4411644941
  H         4.0552993430        4.3605218557       -1.0922975098
  H         3.5476455374       -4.2489375430       -0.6604972246
  O         4.0686103058       -2.4045631875        2.7855000025
  H         3.7702078067       -1.5278040302        2.8857152039
  H         3.5125399491       -2.7549991160        3.5278380590
  O         2.9510338522        1.0882449824       -0.9836067337
  H         3.3210391734        0.2028945174       -0.8705881109
  H         3.4138759739        1.4694792356       -1.7723678573
  O         3.1404934414        4.3030191108       -4.2862308298
  H         3.7478998171        4.1946903997       -3.5029545435
  H         3.0421630708       -4.8298500497       -4.4128084540
  O        -1.6864824340        4.3663052822        1.0780983886
  H        -1.1043236297        4.9875296449        0.6079146378
  H        -2.4076738955        4.9452259542        1.3520896426
  X        -3.4579007561       -2.9233547385       -4.1541279131
  X        -3.6413264433       -3.0019934228       -4.6870137116
  X        -3.8078017855       -2.3876088561       -4.4040899666
  X        -2.7660710024       -3.6395130600       -2.4783353660
  X        -3.0950801591       -2.5863352062       -4.6189712878
  X        -3.8334289916        5.0215792706        4.8140351596
  X        -2.7064951357       -3.6061214450       -1.8112227838
  X        -2.4936993511       -4.2193901164       -2.0034357755
  X        -3.7604713337        4.4073301812       -5.0307135145
  X        -2.2310415021       -3.5937298373       -2.0815794637
  X        -3.4200167413        4.4916821735        4.6302667358
  X        -4.0915118587        4.3381788281        4.4845763672
  X        -4.3204934555        3.4470256023       -2.9442709786
  X        -3.3385573937       -0.4442116487       -3.6059891884
  X         2.7834957089       -3.4566877064       -4.6811513837
  X        -4.3320451908        3.4116879068       -2.2739099557
  X        -4.1367538839       -3.5326239838        2.4348461334
  X        -3.8470159505       -0.0441178408       -3.3953996093
  X        -3.3685420427        0.0165538511       -3.8723618034
  X         3.4601533687        4.2519131460       -3.8794799260
  X        -3.9867216519        2.8878373514       -2.5073042151
  X         3.8885051830       -4.6974905179       -1.6232634274
  X        -3.5669484180       -3.8623383181        2.2091135352
  X        -3.0573295711        0.0874418037       -3.2862248401
  X         2.8804676225       -2.7621576993       -4.5795203799
  X         2.9154850135       -3.1418973821        4.9660345303
  X        -3.9027779735       -3.6748663438        1.8251967153
  X        -4.6477264135        3.0478964037       -2.5104633960
  X        -3.5306797557       -3.1789393893        2.0841563390
  X         3.1023849327        4.7887915756       -4.3413254759
  X         3.9385930395       -0.9322163149       -4.2580001889
  X        -0.6795704595       -2.2618761540       -2.5087963387
  X        -0.1180294680       -3.1118764118        4.7870001327
  X         2.8574569595        4.1859152144       -4.2070966685
  X         2.2643839035       -3.0930329094       -4.9803004453
  X         3.8658408819        4.8145989376       -1.2420897024
  X         0.2937610767       -3.2182184217        4.4514272949
  X         3.6267100472       -4.5339218007       -1.0258450754
  X         4.1645884837       -0.5567207819       -3.9235285558
  X        -0.2603075006       -3.6390504239        4.4174957417
  X         4.1634336112       -0.3664150031       -4.5573676803
  X         3.2869458676        4.1725758074       -4.5545398132
  X         4.3831144116       -2.4402116967        2.8616979131
  X        -1.6905592169        3.9331528528        4.0430300102
  X         4.8474943891       -1.5056540867       -0.8969370590
  X        -0.6443967628       -1.6047197537       -2.3775041459
  X        -0.1106380417       -1.7385669470       -2.7499611584
  X         3.3836304887       -4.8780026414       -1.5402279710
  X        -0.2514586735       -2.8895132743        4.1828278163
  X        -4.7152888983        0.3811488620        4.2126985982
  X         3.5321373534       -0.4286212389       -4.0970636474
  X         3.7877695347       -2.5910244115        3.1580288640
  X        -0.2820502199       -1.8861177012       -2.0898301685
  X         3.9466904625       -2.5146897962        2.5127609795
  X        -4.1240687054        0.6977015918        4.0488753877
  X        -1.0477061028        4.0143063934        3.9891676679
  X         4.4642946044       -1.3689693472       -0.3510092823
  X        -1.8273823896        1.6651811028       -2.2689634467
  X        -4.5599047798        0.3603633489        3.6591340026
  X        -2.0669849025        4.6660980399        1.2132769346
  X         5.0449304655       -1.0465869087       -0.2619853024
  X        -1.1674827088        3.4840271212        4.0269766954
  X        -0.2740975558       -3.1996833669       -0.4210233600
  X         3.9234771020       -1.9226415463        2.8327157629
  X         4.3651969049        3.1677805574        3.3618743376
  X        -1.5436230889        2.1082761565       -2.1325686351
  X        -4.8400609660        0.9455587710        3.8558759475
  X        -0.4372546678       -3.7777527002       -0.0639152997
  X         4.5171217508       -0.9409376598       -0.6754510428
  X        -1.2207734322        1.7324120482       -2.5886475830
  X        -3.3443294256       -0.7115681983        1.5179559712
  X        -1.5369919496        4.2730994941        1.3589236224
  X        -2.2388108729        0.9870241958        3.8555534549
  X         1.0676304361       -0.6831726194       -4.1373375137
  X        -0.3483169578       -3.3064032156        0.2442712532
  X        -1.2489658281        3.7863256328        3.3919658113
  X        -1.1231257036       -1.8355083610        2.5430886522
  X        -1.3864249284        4.6841620617        0.8408655922
  X         1.1327493423        4.3373251247       -1.4742927315
  X        -3.7134077855       -0.5203988809        1.1274231424
  X         2.6414335326       -3.2643278733        0.2606738576
  X         3.8617802959        3.1129939050        3.7949477479
  X         1.5986172165       -0.4923012514       -4.2252666241
  X         0.2831022823        2.6243731513       -4.8303646088
  X        -1.9652809098        0.5382557252        3.7151491559
  X        -3.8635305442       -0.3649108121        1.7940487734
  X         0.2203765356       -3.5858553679        0.0061276828
  X        -1.6158387619        0.8781992527        4.1688265767
  X         4.1839142907        2.6411783010        3.4215272876
  X         1.2615332614       -0.5977769100       -4.7982373372
  X         0.5866893680        4.2290260609       -1.0981965254
  X         2.7489936273       -3.2349834965        0.9203725318
  X        -1.3296029717        1.5613659223       -1.8222628212
  X        -1.7836283858        4.1439152274        0.8861287126
  X         1.0213687379        2.7523808435       -4.5612930776
  X        -1.4531512645       -1.3151856569        2.2245569516
  X        -0.9499578389       -1.8236866087        1.8714638853
  X         2.7164260872       -2.6156925813        0.4450737840
  X         0.5143318403        3.8779435686       -1.6728336660
  X        -3.2575436896       -0.0624175349        1.3817752111
  X         0.4839281610        2.5526476065       -4.1949192840
  X         1.1364880781       -0.0101140394       -4.3028138546
  X         2.1998299414       -3.0751167478        0.5383851279
  X         0.6722659699        2.1526845999       -4.5216979454
  X         3.7923650421        3.0343250541        3.0190990225
  X        -1.7183092429        1.0519630902        3.3998425336
  X        -0.7819020233       -1.4116718610        2.3977382072
  X         0.9115319974        3.8055419442       -1.1195563927
  X         3.1993118945        1.2768830929       -1.4006220114
  X         1.4776070793       -0.8068619448        3.0659274435
  X         3.1476824153        0.6313597569       -0.9359330414
  X         0.1503731187       -0.1714071615       -0.9096316546
  X         3.0208313639        1.2603033564       -0.7259931515
  X         1.1965331410       -0.5778693330        3.4748891672
  X        -1.4950468345        1.3318284381        1.1711218735
  X         0.8620187716       -0.7313815509        2.8841295606
  X         0.1129607617        0.4968859990       -0.9480699074
  X         2.6394540488        1.0408882292       -1.0653252844
  X         0.7660810660        0.3163349378       -0.9331484251
  X        -1.1827172557        1.9293699599        1.0995734015
  X        -1.1431401361        1.4454037286        1.5802085641
  X         1.4182741971       -0.1682643156        2.9470878939
  X         0.2785559977        0.3167607385       -0.4543920219
  X         2.3440308127        2.9271330321        1.5883916622
  X        -0.8541350099        1.2169540108        1.0022603239
  X         1.9332337129        3.0656978338        1.0461781527
  X         2.4267499525        2.4574228429        1.0945571425
  X         1.9213346734        2.5857702730        1.5080203405
