     224
 Particles+Wannier centers. Iteration:1_1950
  O         0.9422893963       -0.1791121716        2.5383493127
  H         1.7006049216        0.1812608237        2.0690984861
  H         0.4550122287       -0.6454611364        1.7706867846
  O         0.8748938112        0.5910935386       -4.4832275144
  H         0.7851768437        0.3356185333        4.7000414782
  H         0.7797453327        1.6091541841       -4.4537564653
  O        -4.1821383721       -4.8373524719       -5.0016061755
  H        -4.7646471162        4.8736372930        4.3917755746
  H        -4.0505593809       -3.8931736352        4.9476736076
  O        -3.9337274119       -0.5840258119        1.2621425488
  H        -3.4007398809        0.2092850570        0.9050502269
  H        -4.2491594073       -0.2052754218        2.1128553715
  O         0.5399030237        3.3823447832       -3.9227106384
  H         1.2885546902        3.8421692792       -3.4930119080
  H         0.0629243232        3.9597453825       -4.5437856277
  O        -0.3140848280       -3.0263085770        4.5874708476
  H        -0.7733705490       -2.4532918217        3.9365731996
  H        -0.7314469052       -3.9450973795        4.5100880531
  O        -4.0169488682       -4.6243615937        0.8714474893
  H        -4.2062554279       -3.9956727932        1.6633288181
  H        -3.8071755269       -3.9988371629        0.1490281914
  O         0.4573949317        0.5567026824       -0.7536407553
  H         1.2687784909        1.0906720352       -0.6695574803
  H         0.7089244547       -0.2291093050       -1.2606386702
  O        -1.4597210858        4.5996773593        4.3607371666
  H        -1.6293045015        4.5642987439        3.3862657098
  H        -2.2548737128        4.8091871582        4.8211024020
  O         2.7063663786       -3.0952734839        4.6426228685
  H         1.7428569764       -2.8164371192        4.7836630531
  H         3.2733910535       -2.3896696285       -5.0008029838
  O        -1.4449873924       -1.9086026156        1.9669559766
  H        -2.2233302642       -1.3962728577        1.7965147334
  H        -1.3959908029       -2.6269539034        1.2652335357
  O         2.4999193429       -3.0781673636        0.4231287208
  H         3.2660149611       -2.5950975718       -0.1858207825
  H         2.8010399515       -2.8198714623        1.2871470877
  O        -1.7473078687        1.2905325802        3.5998158251
  H        -1.4711109264        1.5333084359        2.6872988851
  H        -1.2716913033        1.9272406309        4.2124572395
  O        -3.3665896918        0.7173350630       -3.4880034643
  H        -3.7774010829        1.2910174502       -4.0974844982
  H        -2.7004102525        1.3117496566       -2.9946180122
  O        -4.4718451609        0.7829113705        3.8497975822
  H        -3.5189208509        0.9746915746        3.9203939389
  H        -4.9938651871        1.6353186476        3.8978344623
  O        -3.2881546350       -2.1072333953       -4.2551511211
  H        -2.3584305957       -2.2845977077       -4.3309603815
  H        -3.3582738015       -1.1693869298       -3.9851391131
  O        -1.9253723397        1.2699566878        0.7264616199
  H        -1.7045800483        2.1662423136        0.4520342901
  H        -1.1097895517        0.7353031124        0.5466794354
  O         3.1577230335        1.9312714620        1.5019953440
  H         3.6079839580        1.8285337476        0.6280061849
  H         2.3279436630        2.4809528064        1.3414148456
  O        -4.0954843370        3.6984991971       -2.4188549746
  H        -3.2045541486        3.2926246302       -2.4123539215
  H        -4.2327368095        4.2238231779       -3.2429616859
  O         3.8419854346       -0.8093820823       -4.2527640791
  H         3.0551669296       -0.2373301247       -4.2498855517
  H         4.4478779026       -0.2700845693       -4.7734908158
  O        -0.4749964360       -3.6754457603       -0.0819140792
  H        -0.6460868719       -3.3885878332       -1.0092670277
  H         0.4892327729       -3.5479419889       -0.0188066024
  O        -3.4456782477       -3.4589915924       -2.0075120931
  H        -3.5556868714       -2.9686426871       -2.8745650622
  H        -3.7593441072       -4.3371207671       -2.1015673249
  O         4.5322385047       -1.7445038047       -0.6804453581
  H         5.0100868660       -1.3749233605        0.1244192210
  H        -4.8810188784       -2.1311854148       -1.2674271947
  O        -1.4440329656        2.2857693506       -2.0758687465
  H        -0.8868371085        1.6009313556       -1.6518941022
  H        -0.7463676712        2.7975923066       -2.5495874282
  O        -0.6683228623       -1.6034780980       -2.9849948150
  H        -0.3112938133       -2.1720640791       -3.7005329548
  H        -0.1924516752       -0.7917977786       -3.3519856986
  O         1.5199374367        3.2823690919       -0.2749919038
  H         2.4474018971        3.6286078896       -0.5242281253
  H         0.8961150996        4.0123352303       -0.1326592268
  O         4.4212106279        3.5762276187        3.6686748744
  H         3.7385271228        3.7380319399        4.3570358526
  H         4.0475913448        3.1955323143        2.8441248051
  O         3.8166291246        4.7053572389       -0.6390176938
  H         4.5937908124        4.5419891628       -0.0611323841
  H         3.4151253450       -4.7157464040       -0.1417640930
  O         4.6752828356       -3.0684724437        2.8047041067
  H         5.0288048422       -2.3112455498        3.2905581470
  H         3.8299062758       -3.1988844598        3.2799319075
  O         3.8393309155        1.5906266580       -1.2327981623
  H         4.4608561076        0.8140446848       -1.2860362905
  H         4.5331641757        2.3188871362       -1.4194183729
  O         3.0938559335        4.7071971278       -3.9498842893
  H         3.3665616988       -5.0070078330       -3.1053605075
  H         2.9190306475       -4.5999186531       -4.5252842496
  O        -1.5246990984        4.2960379634        1.5176522170
  H        -0.8675277901        4.7914029890        0.9805862374
  H        -2.4414173684        4.5734915734        1.1880154434
  X        -4.1320758476       -4.3378350020        5.0073624887
  X        -3.5182369366       -3.2377737139       -2.4385829016
  X        -3.3849982533       -2.2916939606       -3.9844776372
  X        -4.3105952003       -4.8823449577       -4.7109478754
  X        -3.6213208369       -3.9267087032       -2.0763921984
  X        -3.8850751552       -4.9598891619       -5.0486666962
  X        -3.1486602174       -3.4794563507       -1.9568355176
  X        -3.4300755664       -2.1619671144       -4.5341628735
  X        -2.7936555993       -2.1890617378       -4.3000995041
  X        -3.6370716832       -3.3165675634       -1.7821828646
  X        -4.4794514719       -5.0090186307        4.7366194636
  X        -3.3144849353       -1.6292483569       -4.1272331587
  X        -4.1464947036        3.9561986191       -2.8550533041
  X        -4.0803918144        3.9106931027       -2.2002094834
  X        -3.6252567399        3.4949215614       -2.4454202196
  X        -1.8852628586        4.7024265156        4.5883474046
  X         3.2461272378        4.9202042000       -3.5089399550
  X        -4.3071467664        3.4699402595       -2.4018237700
  X         3.0097687576       -4.9893976616       -4.2327174402
  X         4.8612688345       -2.6628280314        3.0694293505
  X         3.3201899459        4.5358979588       -4.0758215581
  X        -0.5242740724       -3.4776531328        4.5382243244
  X        -3.2242593038        0.4769997707       -3.6455554811
  X         2.9813295672       -2.7437435164        4.8752050905
  X        -3.9086811765       -4.2907933007        0.4976996645
  X        -0.9671940729       -1.5725584723       -3.0449030035
  X        -3.5777883108        1.0373306425       -3.8217038506
  X         3.7651856458       -1.0947644312       -4.4272863671
  X        -1.2654287577        4.8726818142        4.4066002984
  X        -3.5802665549        0.6563964387       -3.2913111871
  X        -4.1017076495       -4.3069555677        1.2653238176
  X         4.8965329393       -1.9514202121       -0.9719842214
  X        -1.3433890000        4.3246642892        4.4626168200
  X         4.8760258202       -3.3161365329        2.8391757555
  X         2.8049325990        4.5790913511       -3.8858893327
  X        -3.7358481903       -4.7966364172        0.9333059308
  X        -3.0301165863        1.0184505758       -3.2532448060
  X        -0.3908603708       -2.9149943020        4.8877238438
  X         4.2472032764       -3.1427618892        3.0419265946
  X         2.7454788926       -3.3878420715        4.8117396916
  X        -0.4813351168       -1.9144646651       -3.3452242051
  X        -0.5598115818       -2.7376347769        4.2503141745
  X        -4.2874782273       -4.7728167335        0.7948764097
  X         2.7839318653       -3.0888533562        4.3219185148
  X         4.1573936894       -0.5275636502       -4.5302500266
  X        -0.5427524097       -1.6837667986       -2.7049045760
  X         3.9424464745       -0.8195585143       -3.9725958662
  X        -1.5675634982        4.5824552725        3.8768518230
  X         4.6134102680       -2.9692387383        2.5228573047
  X         4.5784470907        3.8619211465        3.6340646168
  X         3.9034118196        4.8169915293       -0.9113502575
  X        -0.0038360722       -3.0387201877        4.5162645334
  X         2.2236063983       -2.9388297658        4.7164949642
  X         4.2879070694       -1.9915344668       -0.5830571090
  X        -0.4286545845       -1.1784520733       -3.1575870143
  X         4.4373259867       -1.5015827799       -0.8213999969
  X         3.4270301865       -0.5093757521       -4.2591655645
  X        -4.5649586450        0.6094184887        4.1025797673
  X         4.2156184601        4.6111223837       -0.3455984794
  X        -0.5599416430       -3.5320124840       -0.5688551629
  X         4.0409357688        3.6508310790        4.0017778295
  X         4.5835148221        3.3310409436        3.7817800024
  X         0.3162978446        3.7012250623       -4.2435805458
  X         3.6059467657       -5.0364311307       -0.3781127560
  X        -1.5634859890        2.4664708424       -1.8577108232
  X         4.7790355586       -1.5819443450       -0.2766194018
  X        -4.7224657793        1.2320972367        3.8745807064
  X        -3.9954464476        0.9023465051        3.8989305060
  X         0.9184622510        3.6349430293       -3.7154669563
  X        -1.4656650584       -2.0390649101        2.2588035767
  X        -0.6220523039       -3.4720801994        0.1199610036
  X        -1.9749759156        4.4439124778        1.3387915542
  X         0.3227051384        3.3236895488       -3.6892371774
  X        -0.5229740537       -3.9957865967       -0.0576355058
  X         3.6015083858        4.4369353579       -0.6206543526
  X        -1.0898025730        2.5474579667       -2.3213577101
  X        -3.7120976976       -0.7979610644        1.3378338121
  X        -1.6544613508        2.1431605194       -2.3004437873
  X        -4.5092007090        0.6616627118        3.5543350987
  X        -1.4468660926       -2.2781172007        1.6090669467
  X         4.2068171770        3.4095953869        3.2491199732
  X        -1.8600356409       -1.6496782111        1.8681454675
  X         0.6484402635        3.1206471454       -4.0856179923
  X        -4.1897297133       -0.6668058746        1.0628138155
  X         2.8399247072       -2.8492644472        0.1360776892
  X        -1.5038649427        4.3901866852        1.8375129124
  X         0.0248862156       -3.6064203918       -0.0539610720
  X        -4.1022967872       -0.3914712834        1.6982130843
  X        -1.4908966603        3.9918080222        1.4467133740
  X        -2.0757933290        1.3437675341        3.6335796314
  X         4.1902240367        1.9657284587       -1.3272328081
  X        -1.1674047216        1.9327616086       -1.8620550617
  X        -3.6838074927       -0.1834848327        1.0775894734
  X         2.6546878471       -2.9348188582        0.8906129644
  X         2.5664551843       -3.3963454033        0.4038722949
  X        -1.2033464528       -1.7254274051        1.9003521829
  X        -1.4926365985        1.6338759935        3.9145596874
  X         4.1613321264        1.1819784521       -1.2615673775
  X        -1.1871810297        4.5590168745        1.2364169301
  X         0.6375835736        0.4507504789       -4.3107292724
  X        -1.6373131877        1.0168548090        3.6543556425
  X         2.1967938392       -2.9777451887        0.3649540888
  X         3.6339886091        1.5793496456       -1.4501571160
  X         1.1761020349        0.5324411845       -4.4139221279
  X         0.8178908917        1.1004013827       -4.4865518706
  X         0.8205141899        0.4706587620       -4.9716063846
  X        -1.5998713712        1.4336695668        3.1347952509
  X         3.7670304790        1.6206862472       -0.9088490614
  X        -2.1891864685        1.1449251947        0.5803820348
  X        -1.8066499692        1.7350518958        0.5670017717
  X         1.9611395009        3.4762273643       -0.4019930195
  X        -1.9296007770        1.2895211897        1.0388255527
  X         1.2012210133        3.6938277262       -0.2082097143
  X         0.6008082012        0.1414195774       -1.0189240072
  X         1.4072856398        3.1063811040       -0.4996613498
  X        -1.5054684495        0.9999507816        0.6222163374
  X         0.2464767429        0.7256957552       -0.9369423472
  X         3.3499447132        2.1092702001        1.7059392260
  X         1.0363079123       -0.3902296127        2.7375231886
  X         0.3663859994        0.4671427334       -0.4638433253
  X         1.5571567915        3.1563649586        0.0173428605
  X         3.3782176440        1.8971169385        1.0519443988
  X         0.6962932944       -0.4161159103        2.1373624533
  X         3.0625050713        1.6459187254        1.5866363637
  X         0.7741240038        0.0601673859        2.6196114450
  X         0.8862561833        0.8200956627       -0.7163741924
  X         2.7347852762        2.2126272352        1.4089489523
  X         1.3498127844        0.0059050765        2.2871580352
