     224
 Particles+Wannier centers. Iteration:1_2800
  O         1.4213132271       -0.0627569304        2.6700191877
  H         2.0417799364        0.5949878563        2.2190372012
  H         0.5993799169        0.3950488070        2.4108793980
  O         1.1966909366        0.3001810780       -4.6463456099
  H         1.1479886295        0.3174134161        4.4788163133
  H         0.7949611051        1.1685567931       -4.4620229726
  O        -3.6854771635       -4.5643385690        5.0273551850
  H        -4.4074215481       -4.5332414758        4.3379584734
  H        -3.5086112935       -3.6015691869       -4.8339042179
  O        -4.2548611773       -0.4575277245        2.2541527124
  H        -3.2848130939       -0.5878957719        2.1906177859
  H        -4.3411934160        0.2346763541        2.8783082978
  O         0.5162867657        2.9856363195       -4.3287945631
  H         1.2026269462        3.7062767109       -4.3706028618
  H        -0.2353601532        3.4753714691       -4.8217838375
  O         0.3997626151       -3.1251749502        3.9948614394
  H        -0.2529813691       -2.5401934929        3.5895945731
  H        -0.1254830146       -3.9793506564        4.1266591456
  O        -3.5328609128       -3.9182502868        1.2135759640
  H        -4.1730838665       -3.7946409483        2.0053089975
  H        -3.8871843341       -3.5760582008        0.3800083087
  O         0.1010858068       -0.1472932864       -0.1670404943
  H         0.5078036831        0.6518638209       -0.5717153359
  H         0.8167423000       -0.8460601952       -0.3120956317
  O        -1.2737009120        4.4774040755        4.2843715850
  H        -1.1988076990        4.3633023322        3.2885390940
  H        -2.1877055207        4.7491862384        4.4983090946
  O         2.9660617469       -2.6782937846       -5.0205643882
  H         2.0497242867       -2.5056711821        4.8252181573
  H         3.2578308345       -1.7685327606       -4.7072985931
  O        -1.4674576423       -1.5336089383        1.8859382441
  H        -1.9812276449       -2.3536544538        1.6179693656
  H        -1.0306366988       -1.4428580957        0.9971685783
  O         1.9391795232       -1.9435506625        0.5063175737
  H         2.9197687454       -1.6966785156        0.4281235986
  H         1.6889246382       -1.7364436450        1.3966989260
  O        -1.7834397306        1.3374464736        4.1342032481
  H        -1.4642391321        0.4439752877        4.2845961634
  H        -2.0525315485        1.2567776713        3.1570776565
  O        -3.4942414818        1.0084183182       -3.0800489125
  H        -4.0150562043        1.7961158956       -3.4160863075
  H        -2.6388280959        1.4056744217       -2.6671444151
  O        -4.8251296468        1.4213648096        4.4610657519
  H        -3.8456978163        1.4106589633        4.5820015787
  H        -5.0002181491        2.3932477647        4.3154118351
  O        -3.3803169731       -1.9686001644       -3.7711867108
  H        -2.3530955537       -1.8742298858       -3.6700126395
  H        -3.7082924592       -1.0494765102       -3.7162383704
  O        -1.9160844540        1.2508940182        1.2426185663
  H        -1.7928031381        2.1858900311        1.0341090923
  H        -1.1229491807        0.7626984925        0.9153143151
  O         3.4535554281        1.7397295014        1.8381098362
  H         3.8608837330        0.9017902182        2.1390013706
  H         3.6875524224        1.6996665907        0.8826917908
  O        -3.8558781954        4.0705172524       -2.6473846729
  H        -2.9161765567        3.8567987932       -2.4577737940
  H        -3.8152300423        4.5207431566       -3.5313195423
  O         3.8275653330       -0.2712989123       -3.7530933869
  H         2.8685449826       -0.0744767917       -3.7122987272
  H         4.2152767312        0.3680909909       -4.3597278716
  O         0.2355595120       -4.6353196837       -0.3509233496
  H        -0.0342382000       -4.6736303889       -1.2468613325
  H         0.6763932330       -3.8007412933       -0.2197100992
  O        -4.4087804618       -3.5216807764       -1.5943759282
  H        -4.0004811201       -3.0071508714       -2.3105205049
  H        -4.3039401910       -4.4665229518       -1.8850503221
  O         4.5189787113       -1.2532010619       -0.0289139609
  H        -4.9257027279       -0.8724395646        0.5365365109
  H         4.9643212241       -1.6294473950       -0.8909311387
  O        -1.1575032041        3.4021272609       -2.1872958339
  H        -0.4894168840        3.4402050065       -1.4223283843
  H        -0.5598486337        3.3244849145       -2.9838250736
  O        -0.6724599310       -1.6053893526       -3.7012205516
  H        -0.0117094826       -2.3257812124       -4.0475583099
  H        -0.2555794899       -0.7323183564       -3.9709441694
  O         1.5882205308        2.9899773896       -0.8443160743
  H         2.3254691892        2.4544618715       -1.2000871733
  H         2.0955475766        3.8369518956       -0.5330568992
  O         4.2991388836        3.9981551780        3.6590882210
  H         3.5603783341        4.3109325264        4.1838381773
  H         3.8977973384        3.5197777932        2.9344058812
  O         3.1030884367       -4.5146045512       -0.4602636359
  H         2.9155580903       -3.8310386206        0.2591730558
  H         3.8547590678       -4.1906841187       -1.0654543022
  O         4.5821925964       -2.9104713145        2.8330777466
  H         4.9838536835       -1.9610365891        2.7141220533
  H         3.8760843060       -2.7904768383        3.6248283369
  O         4.1579421578        1.5853693983       -1.0457977696
  H         4.5768480006        0.7129279301       -1.3418917129
  H         4.7890149141        2.3242130899       -1.3468288448
  O         2.5233652650        4.8714239434       -3.8413513569
  H         2.7172152439        4.6588855485       -2.9327381800
  H         2.8859410725       -4.3588966845       -4.1402734677
  O        -1.3386226692        4.2183903085        1.4373933100
  H        -0.7694694327        4.6009880736        0.7433738907
  H        -2.0821314452        4.8573164242        1.3349907353
  X        -3.7955814087       -4.7148108104       -4.8017606050
  X        -3.4403035182       -2.1044759350       -4.0617377468
  X        -3.6001892458       -4.0751644628       -4.9630047284
  X        -3.4121492737       -4.6879466129        4.8839361559
  X        -4.1976305150       -3.2638959688       -1.9628069374
  X        -4.0571932557       -4.5399365151        4.6773413246
  X        -3.4914779198       -2.1251968848       -3.4978954017
  X        -3.8276495978        4.2898955505       -3.1002303691
  X        -2.8840463581       -1.9138174418       -3.7198189176
  X        -4.3552126294       -3.9926845662       -1.7436744072
  X        -3.5457734423       -1.4897520295       -3.7527869804
  X        -4.7248131576       -3.4618621966       -1.5953340222
  X        -3.9531281436        4.3070762828       -2.4362793185
  X        -4.2476848447       -3.4786186033       -1.3170679635
  X        -3.3759812515        3.9681214567       -2.5580720147
  X        -4.0156542096        3.8002986221       -2.6739114936
  X         3.1305765186       -2.7264292766        4.7815278369
  X         2.6605170136        4.6561860978       -4.0151896881
  X        -1.7438280222        4.5971689359        4.3788944195
  X        -0.9828771699       -1.6548648090       -3.8349721158
  X        -3.7427622311       -3.7376487742        0.7938007425
  X         4.8382381468       -3.1164969827        2.9174031146
  X        -3.8651233237       -3.8528875887        1.5908605543
  X        -3.4178122745        0.8274980498       -3.3233407204
  X        -3.7527352648        1.4283602437       -3.2536197950
  X         2.9774784133       -2.9073520044       -4.7871203230
  X         2.7155782811       -4.7830227808       -3.9636446235
  X        -3.2779606153       -3.7259395951        1.2774948972
  X         3.1068106668       -2.2275493396       -4.8566987456
  X        -3.4640551838       -4.2268995589        1.1777567872
  X         2.6429557736        4.7830030071       -3.3543375039
  X        -0.3314330459       -1.9683717225       -3.8854796454
  X        -3.6548399678        0.8991389140       -2.8463404121
  X         4.2508050597       -2.8536097024        3.2182572188
  X        -0.6504309645       -1.6121178215       -3.4044307556
  X        -1.1018557248        4.7496092403        4.3314472069
  X        -3.0530032538        1.2243689068       -2.8761254061
  X         3.8248828823       -0.5600403070       -3.9183721465
  X         2.2084554850        4.8803501099       -3.8643977755
  X         4.4581961627        4.2449704226        3.5645441001
  X         4.7756739277       -2.4318132956        2.7881538755
  X        -1.1699732929        4.2055820704        4.4532063641
  X         2.4885219820       -2.5845928508        4.9577192515
  X        -1.3320268349        3.6743658839       -2.2005669116
  X         0.1316061213       -3.5570707745        4.0584960153
  X         4.4298875014       -2.9667127806        2.5776780630
  X         3.4900539954       -4.3344262261       -0.7578149535
  X        -4.3205507502        1.4208857123        4.5286765583
  X        -0.4698295087       -1.1653786882       -3.8534719666
  X         3.9564812900       -0.2511763210       -3.4746546465
  X         4.0127987997        0.0720956677       -4.0677072546
  X         3.8964857796        4.1581580797        3.9297730504
  X         4.4468514836        3.7618910168        3.8372918300
  X        -1.2560164889        4.4103946412        3.7865681645
  X        -4.9069707236        1.9151524723        4.3925301250
  X         0.4647446313       -3.0054883359        4.2939056507
  X         4.7614244603       -1.4367686487       -0.4603774733
  X        -1.3087557706        3.1338313241       -2.1643267415
  X        -4.9699750276        1.3199049940        4.7315901387
  X         0.0479840167       -2.8189451346        3.7842935756
  X        -0.8582049991        3.3733226185       -2.5836227090
  X         3.3355740102       -0.1515991654       -3.7295009743
  X         2.8519140887       -4.5195304583       -0.6350825004
  X        -4.8703782056        1.2741307744        4.1810352712
  X         0.6230044848       -3.1703788358        3.7991976994
  X        -4.3894948075       -0.7312398748        2.3882982925
  X         3.0286767396       -4.1552306952       -0.0949470432
  X         0.0940351397       -4.6371216741       -0.8377568470
  X         0.1463930508        3.2154302943       -4.5782480201
  X         4.0784123728        3.7639510494        3.2757741997
  X        -2.0582736345        1.3609727950        4.2990125533
  X         4.3551961719       -1.4854559784        0.1169732318
  X        -1.7329624890       -1.9581024906        1.7602335035
  X        -0.8181677312        3.4294594952       -1.7930108441
  X         3.1878136645       -4.7877904425       -0.3312474862
  X        -1.7264758874        4.5394924953        1.3858352418
  X         4.3605628365       -1.0172212547       -0.1194715380
  X         0.8730550180        3.3394543308       -4.3605001615
  X        -4.2975419777       -0.0870805167        2.5782532908
  X        -3.7576249559       -0.5196169062        2.2313619836
  X         0.4376996787       -4.8420622644       -0.3218893367
  X         0.4089452050        2.9998974387       -4.0169633915
  X        -1.6115753619        0.8501025004        4.2114197499
  X         4.4925811176        1.9599777168       -1.2073891653
  X         0.4530371221       -4.1852015064       -0.2923536100
  X        -1.9197617573        1.2901600785        3.6417343648
  X        -4.3604054220       -0.3669366681        1.9665433655
  X         4.8817974286       -1.0703894663        0.2568596406
  X        -1.2540562134       -1.6132981256        2.1039292103
  X        -1.2138342778        4.2692719047        1.7420512690
  X        -1.6815354524       -1.2981002106        1.9167837250
  X         0.5990024698        2.6983152699       -4.4601012885
  X         4.3809867769        1.1464482990       -1.2031927590
  X        -1.0414232007        4.4040219679        1.0933222431
  X        -0.0361256865       -4.6594113039       -0.1641978838
  X         0.9733087171        0.0742489525       -4.5467860423
  X        -1.5531510203        1.5240187561        4.1550466259
  X         3.8792216478        1.6301296920       -1.1965829586
  X         1.5001342804        0.2864823237       -4.5432519294
  X        -1.4368214220        3.9238622789        1.3464856150
  X        -1.2354401556       -1.4811316066        1.4287177454
  X         0.9960411821        0.7420787828       -4.5468214436
  X         1.9209008598       -2.2647316397        0.4715139876
  X         4.1583452905        1.5910584306       -0.7170359786
  X         1.1746758501        0.3097759849        4.9548665263
  X         2.4186855610       -1.8173679877        0.4810385754
  X         1.8481218563        3.4099099558       -0.6897473294
  X         1.7561149606       -1.7473592605        0.3003633835
  X        -1.9172529763        1.2332430911        1.5785596819
  X        -2.1515890360        1.1468187866        1.0889186747
  X        -1.8371116938        1.7368240922        1.1230621237
  X         1.3909021643        3.0732713043       -1.0771437792
  X         1.9726081850        2.7127874855       -1.0395824316
  X         1.8171621306       -1.8348434108        0.9806746337
  X        -0.1511293265       -0.2178845913       -0.3240853947
  X         3.5798440553        1.9882336546        1.9855966218
  X        -1.4941451584        1.0179124219        1.0777275546
  X         0.4537393827       -0.4906982004       -0.2427251887
  X         1.4902454397        2.8427868104       -0.5992128150
  X         3.6769632512        1.2959040974        1.9981062474
  X         0.3155537554        0.2729291218       -0.3807075749
  X         3.5755773682        1.7199200682        1.3511371605
  X         1.4427671828       -0.0146297734        2.9976640358
  X         1.4330890284       -0.3486042915        2.5326173252
  X         0.0710876704       -0.0873195307        0.1505570621
  X         3.1342200510        1.6653320007        1.8584564369
  X         0.9790136033        0.1727646057        2.5331046293
  X         1.7412281296        0.2590619514        2.4448775480
