     224
 Particles+Wannier centers. Iteration:1_2350
  O         1.5521162362       -0.1490884292        2.6071715428
  H         2.3074884604        0.3302955334        2.3385926134
  H         1.1064693912       -0.1345122623        1.7285612996
  O         1.3121741149        0.9825274147       -4.5953182874
  H         1.1804400083        0.8308664459        4.5110886323
  H         1.0428366842        1.9171198788       -4.4884278542
  O        -3.3006338085       -4.7972181641        5.0307593147
  H        -3.8553490734        4.7748561391        4.4279870646
  H        -3.8532665290       -3.9517421826       -4.8187566831
  O        -4.1898460638       -0.6054688045        1.4893179595
  H        -3.4077126244        0.0115918126        1.3992447589
  H        -4.5675704560       -0.0632510747        2.2929188005
  O         0.4481509400        3.5582844473       -3.9023845806
  H         1.3962527081        3.9101267818       -3.8742837443
  H         0.0784639819        4.0775514790       -4.6589886792
  O         0.4722314461       -2.8221982743        4.2575764532
  H         0.1943621921       -2.2686696388        3.4964567104
  H        -0.2080990901       -3.5752533299        4.2701869869
  O        -4.1273989175       -4.4312678259        0.8424314622
  H        -4.5255507710       -4.0844153970        1.6984718094
  H        -3.9652271972       -3.6782913493        0.2185922313
  O         0.4838149215        0.4959132317       -0.1422595678
  H         1.0373219073        1.1889330866       -0.5849504538
  H         0.7399430726       -0.3806161027       -0.5234906462
  O        -0.8224575269        4.9724693562        4.0113670318
  H        -1.1902226078        4.6724460546        3.1202388289
  H        -1.6537522286       -4.9173431939        4.5047471754
  O         2.9077577467       -3.0792562759       -4.7989181620
  H         2.0346704802       -3.1259836813        4.9139823255
  H         3.1607847510       -2.0739844665       -4.8996352644
  O        -1.2109903591       -1.9595330663        1.6756508173
  H        -2.1421274967       -1.9627547791        1.4906273793
  H        -0.8730299426       -2.7305318436        1.1114664681
  O         2.0149243822       -2.5307200998        1.0629006178
  H         2.7654189501       -2.2962656916        0.4649076404
  H         2.3819896072       -2.7947394713        1.9056232893
  O        -1.7671117754        1.1997764314        4.3360385088
  H        -1.4343576571        0.6951257775        3.5880990241
  H        -1.3754774698        2.0849784582        4.2003103677
  O        -4.0186601479        0.5201291065       -3.3189326989
  H        -4.3124716623        0.7893282580       -4.2307366927
  H        -3.1623152412        1.0441122561       -3.0914991117
  O        -4.3776627338        1.0466826740        4.0287947938
  H        -3.3745582949        1.1562718797        4.0545947741
  H        -4.7613168099        1.9477349581        4.0195611273
  O        -3.4736042715       -2.0717305548       -3.9017934337
  H        -2.5020720355       -1.6719285246       -4.0622946034
  H        -3.9706286939       -1.1922482782       -3.8394790335
  O        -1.9651723278        1.2815475181        1.4710284646
  H        -2.0424782620        2.0944191390        0.9586451480
  H        -1.3211851958        0.7174251155        0.9651727172
  O         3.3209985057        1.9000260357        1.6734183390
  H         4.0518353524        1.8600592943        1.0068605420
  H         2.5592501996        1.9983885147        1.0178088943
  O        -3.8493364574        3.9902452892       -2.4636501942
  H        -2.9891705567        3.5056354955       -2.3966580412
  H        -3.7752358304        4.3651144375       -3.3690883650
  O         3.6956775694       -0.5958632267       -5.0175871062
  H         3.1494817312        0.0744473975       -4.5730806735
  H         4.4427605835       -0.0906622814        4.6524344501
  O         0.1593688644       -4.2802221225       -0.0480490395
  H         0.0164208794       -4.0130828970       -0.9919555532
  H         0.9488217923       -3.7861368086        0.2385938979
  O        -4.1786054331       -3.3012710540       -1.6290398612
  H        -3.8414663273       -2.7886035174       -2.4096636050
  H        -3.9662866698       -4.2141606145       -1.8576029561
  O         4.1364251493       -0.9147331550       -0.4014144585
  H         4.8885107489       -0.7638075988        0.2102308397
  H         4.5013770887       -1.4356644940       -1.2006451601
  O        -1.5085463292        1.9819956889       -2.5438409943
  H        -1.1657913166        1.4534425513       -1.7684812860
  H        -0.7238598386        2.4073788459       -2.9233325576
  O        -1.0765110806       -1.2038767265       -4.0887971989
  H        -0.3967455583       -1.9507462089       -4.3142344351
  H        -0.7418369395       -0.2978571097       -4.1925679281
  O         1.3925554716        2.9183581123       -0.9341665507
  H         2.3389430742        3.0826782531       -1.1876539827
  H         0.9207021735        3.7697282775       -0.9314789983
  O         4.8083616191        3.6348725568        4.1541512544
  H         4.2462890295        3.8669628495        4.9607731453
  H         4.2195687266        3.7050246236        3.3927715779
  O         3.8058211820        4.8030687683       -1.0564666435
  H         4.4707110655        4.1020366349       -0.7797745153
  H         4.3443944429       -4.4142562071       -1.0633228607
  O         4.6460206756       -3.1284644975        2.9138771240
  H        -4.8755069205       -2.3468649253        2.9345986837
  H         4.1950043101       -3.1290106516        3.7570680462
  O         3.9590159789        1.8400691905       -1.4051987373
  H         3.7869778499        0.9351169347       -1.1543964666
  H         4.8149693855        1.6874534495       -1.8763163810
  O         3.0477382257        4.5681845223       -3.9879303227
  H         3.3980065563        4.5447335352       -3.0504549827
  H         2.9301928182       -4.5914954463       -4.2282318921
  O        -1.8823056889        4.3326896852        1.5033818833
  H        -1.1141140431        4.7568910414        1.1037081717
  H        -2.6516830225        4.8942717905        1.2177693934
  X        -3.5842268234       -4.3737424149       -4.9655520631
  X        -3.5755956764       -2.2614593849       -4.1521817154
  X        -3.3089715034       -4.9687251192       -4.7985823539
  X        -4.0101886479       -3.0488168588       -2.0073056866
  X        -3.4923070873       -2.2036092425       -3.5801940659
  X        -2.9991411756       -4.7215600496        4.8995907603
  X        -3.0246689214       -1.8987810129       -3.9777485089
  X        -4.0645869869       -3.7755691414       -1.7543863420
  X        -3.5827726733        5.0487011959        4.7080965001
  X        -3.7370962562       -1.6380714873       -3.8853968600
  X        -3.8121727335        4.1757008511       -2.9364288100
  X        -4.4988876346       -3.2906298245       -1.6236616504
  X        -4.0207093629       -3.2349453452       -1.3501554756
  X        -3.8345835971        4.2449172083       -2.2685992703
  X        -4.0758281059        3.7876989647       -2.4532041714
  X        -3.3979656569        3.7438176810       -2.4323345691
  X         3.0135854780       -2.6064084958       -4.8263309422
  X         3.2830479950        4.4309041503       -4.1969586699
  X         4.4327365116       -3.1307015766        3.3599988793
  X        -3.9520053947        0.2013374855       -3.3465027686
  X         3.1013704632       -3.2247228526       -5.0133024421
  X        -1.3782725783       -1.2654129990       -4.2481279492
  X         2.9930441915        5.0372676862       -4.0928395549
  X        -4.0488844204       -4.0258667426        0.5464056509
  X         4.5242720062        3.7457021519        4.5468790348
  X         2.9047804361       -3.2025959109       -4.4990101729
  X        -4.1557094094        0.6754311691       -3.7827237753
  X        -1.2404648403       -5.0308028540        4.2576354287
  X         3.2258079295        4.5700644257       -3.5138250515
  X        -3.5819614376        0.7846081950       -3.2245670861
  X         4.9528620333       -2.7086192340        2.9403764372
  X        -3.8184216345       -4.5604326348        0.9173595476
  X        -4.2381776835        0.6201619862       -3.1124295000
  X         4.0822646046       -4.8526802590       -1.0532858428
  X         4.8384622913       -3.3920354579        2.8643136454
  X        -4.3196071206       -4.2394981078        1.2702027432
  X         2.4575299378       -3.1029589124       -4.9928192555
  X        -0.7218475534       -1.5581655383       -4.2111101368
  X        -4.3291366914       -4.6058681611        0.7120220267
  X        -1.1040282157       -1.2237358768       -3.8018409392
  X        -5.0471102491        3.8577317113        4.1286445010
  X         2.7387175494        4.4276715129       -3.9777422361
  X         4.8910473840        3.3077476847        4.1667212249
  X         4.4344053363       -3.0630938864        2.7126534573
  X         3.8096197395       -0.7823304194       -4.8027750018
  X        -0.6714877338       -4.8327422038        3.9817648644
  X         3.7351615965        4.7386278507       -1.3770168774
  X         0.1336478358       -3.1893228544        4.2577884203
  X        -0.6659884851        4.7273289148        4.1701803354
  X         4.1587564744        4.4496821761       -0.9083561096
  X        -0.8882628917       -0.7453034682       -4.1692448759
  X        -4.4737908581        0.9091878032        4.3216258077
  X         3.5198980285       -0.7427491224        4.8727670022
  X         0.4079530602       -2.6476047243        4.5277240837
  X         4.4890289092        3.6842583573        3.7579094407
  X         0.2573325359        3.8278287608       -4.2885172934
  X        -1.6423730149        1.7751178527       -2.7460614856
  X         0.7749565551       -2.9420956726        4.2239105179
  X        -0.9982147978        4.8237474360        3.5702276862
  X         4.0716436127       -0.3417568729        4.8639500035
  X         3.5800851315        4.8183551775       -0.8482234106
  X        -4.5605228950        1.5047425347        4.0167637639
  X        -2.2551957915        4.6187368888        1.3599951340
  X        -3.8947069983        1.1087441518        4.0402371299
  X         4.3389170656       -1.1798732632       -0.8145604819
  X         0.9137409768        3.7346458686       -3.8819103062
  X         0.2888781746        3.6133681659       -3.6376679053
  X        -1.6905560500        2.2155916768       -2.4275435984
  X        -2.1076968141        1.2271723367        4.2804653219
  X         3.4243135137       -0.2399906064       -4.7900546572
  X         0.3296664371       -2.5406777578        3.8574493614
  X        -1.1009749822        2.1844887630       -2.7355095414
  X        -4.4617010749        0.8839026548        3.7564733810
  X         0.0923138388       -4.1323309434       -0.5509516828
  X        -4.0929345126       -0.8843691121        1.5965959987
  X        -1.8330027188        4.3751674836        1.8377582460
  X        -1.7150502501       -1.9721223472        1.5741390763
  X         0.4717091507        3.2456222693       -4.0080723076
  X         4.4032950831        1.7672720020       -1.6472404841
  X        -1.9104816238        4.0408947272        1.3844817036
  X        -1.6600652548        1.0872497418        4.6010434465
  X        -4.3929374505       -0.5759779826        1.2208021842
  X        -1.3231494734        1.7112588777       -2.1366505985
  X        -1.5604567061        1.6678166768        4.2546502767
  X        -0.0909863848       -4.1649363109        0.1182985790
  X         4.5225808278       -0.8496123791       -0.1117305858
  X         4.0400849091       -0.6241397481       -0.5137636858
  X        -1.1697081043       -2.0344386565        1.9749198194
  X        -1.0468440029       -2.3600970895        1.3810541230
  X        -3.7878935117       -0.3070900657        1.4304544131
  X        -1.4828642015        4.5584660766        1.2881403820
  X         0.2116644683       -4.5882632109       -0.0501072105
  X        -4.3961008752       -0.3455971584        1.8898495067
  X         0.5635284104       -4.0334427064        0.0813931734
  X         3.7417873012        1.9450161827       -1.5985504373
  X        -1.5822632778        0.9381259055        3.9443848762
  X         4.0214111516        1.9920571816       -1.1339485158
  X         3.9258506971       -1.1123749378       -0.2596917572
  X        -1.1037670171       -1.6994540158        1.5533061450
  X         2.4148244841       -2.4227809981        0.7659858698
  X         1.6286865249        0.9490203851       -4.5412633487
  X         3.8599151286        1.3663700935       -1.2777233587
  X         2.2217413743       -2.6703144936        1.5046213405
  X         1.0971353234        0.8089814502       -4.4523455096
  X         1.1808084549        1.4655469715       -4.5498786402
  X         1.8598675725       -2.8032966399        0.9275559703
  X         1.2396941095        0.9173676057        4.9888618660
  X         1.8564202317       -2.2810073885        1.1001396391
  X         1.1520111195        3.3702557267       -0.9410937191
  X        -2.2590671324        1.1216814495        1.4510493328
  X        -1.9989084859        1.7036452449        1.1917942297
  X         1.8693025597        3.0224467596       -1.0707824900
  X        -1.8431510832        1.3414762948        1.7437476510
  X         1.2627888135        2.7159282514       -1.1376524820
  X        -1.6343799721        0.9983440785        1.2007247900
  X         3.7094047019        1.8769514120        1.3277049835
  X         1.4077617374        2.8211378462       -0.6350254538
  X         1.6229461372       -0.4371194945        2.6709890762
  X         3.3473327463        2.1630783556        1.8331016577
  X         0.6266875032        0.0364068514       -0.3548398251
  X         3.2894077511        1.6101598372        1.8040381082
  X         1.3880736577        0.0427471639        2.8158214727
  X         0.1776268245        0.5497509341       -0.2211898691
  X         1.9605776715        0.0977518547        2.4700467189
  X         0.7751519643        0.8277462620       -0.3731067348
  X         2.9226653468        1.9504977214        1.3332377986
  X         1.3112653054       -0.1382885780        2.1536707624
  X         0.5626454222        0.4815208629        0.1642394586
