     224
 Particles+Wannier centers. Iteration:1_2050
  O         1.0863230644       -0.1672645746        2.6486424162
  H         1.2599176367        0.3714999020        1.8632607166
  H         0.0547061939       -0.3110687178        2.7054162302
  O         0.8529426237        0.6372769106       -4.3052281254
  H         0.6830502953        0.7077660442        4.8750396548
  H         0.8630623650        1.5900043561       -4.0236218870
  O        -3.8801640014       -4.8891612449       -5.0124142760
  H        -4.6095712824        4.8834874866        4.4569819306
  H        -3.9765071784       -3.9127467730       -4.9390475702
  O        -4.0404138988       -0.4847343906        1.1971545055
  H        -3.3275223039        0.1725929378        0.9355533634
  H        -4.5580815160       -0.0704133914        1.9574371628
  O         0.5916952000        3.5358662152       -3.7789803065
  H         1.4571449916        4.0754501745       -3.6197568325
  H         0.0858808259        3.8218560692       -4.5668798402
  O        -0.1919136351       -2.8890334461        4.3827704568
  H        -0.7060002999       -2.2632504792        3.8037714198
  H        -0.7670048628       -3.7184700066        4.6013232711
  O        -3.9109126507       -4.6459778595        1.1369287589
  H        -4.4400340122       -4.1046087846        1.7976781957
  H        -3.7928831800       -4.0159817340        0.4013783990
  O         0.3695287298        0.5399623229       -0.5746789002
  H         0.9338916949        1.3449232859       -0.6971461561
  H         0.5703122059       -0.1644030837       -1.2130094778
  O        -1.4793618596        4.5473449417        4.0894212084
  H        -1.3108471396        4.6211541021        3.1054255905
  H        -2.4113181538        4.8931956741        4.2394854734
  O         2.7339250627       -3.1597144931        4.7832679340
  H         1.8053183183       -3.1748450108        4.4759313480
  H         2.9633403859       -2.2185688773        5.0150738054
  O        -1.3242161298       -1.7764825734        1.9536554086
  H        -2.2728793695       -1.7767294604        1.7811445893
  H        -0.7973634119       -2.3011553321        1.2667373571
  O         2.4627644469       -3.1614629896        0.4488869011
  H         2.9951873381       -2.4815019294       -0.0546844933
  H         2.6070717602       -2.9195487873        1.3606144895
  O        -1.5625433905        1.4786013201        3.6721962796
  H        -1.4344757573        1.3472539235        2.7020420052
  H        -1.5787601309        2.4889150191        3.7774003886
  O        -3.5944270518        0.7009575573       -3.0977767542
  H        -3.6586896657        1.0878291360       -3.9350548428
  H        -2.6404403517        0.8010329351       -2.9271368676
  O        -4.1301037861        0.9099499592        3.8895716103
  H        -3.1308352318        1.0881073238        3.9450501024
  H        -4.5598817996        1.8011479391        3.8188906108
  O        -3.1802816584       -1.7897013503       -4.4072965618
  H        -2.2031367934       -1.5362740903       -4.1969559004
  H        -3.7789616484       -1.1370789415       -4.0661058748
  O        -1.9214053760        1.3356788816        0.9393262348
  H        -2.0309346496        2.1979903292        0.4965020245
  H        -1.1641099852        0.9409292062        0.3842355543
  O         3.3562020380        2.0373686560        1.7433455134
  H         4.1257055275        1.6764679614        1.3150896034
  H         2.7805225372        2.4564236631        1.0539443533
  O        -3.9326711052        3.8271261925       -2.4268499121
  H        -3.1234713013        3.3797381473       -2.0459939927
  H        -3.7749528279        3.8801144066       -3.4035135039
  O         3.8034542520       -0.8417336273       -4.3986899134
  H         3.0746339675       -0.1764252160       -4.3236726790
  H         4.4232225653       -0.3177183303       -4.9694856123
  O        -0.1875535372       -3.8561764674       -0.0506270178
  H        -0.6808776463       -3.5460617806       -0.8731882011
  H         0.7146635700       -3.3788299924       -0.0269802173
  O        -3.8671860290       -3.4761109520       -1.8104649096
  H        -3.3984534198       -2.9613981357       -2.5502503653
  H        -3.7164250301       -4.4069406952       -2.0764343007
  O         4.2274912682       -1.7012587077       -1.0552662613
  H         4.8442742805       -1.2559201592       -0.5074881865
  H         4.8308500263       -2.2360687003       -1.5863600077
  O        -1.2517968262        2.2274399729       -2.3698351548
  H        -0.8053695921        1.6198856642       -1.7115518044
  H        -0.5349087288        2.8295770581       -2.6544048231
  O        -0.7095934288       -1.3522352861       -3.2809063082
  H        -0.0345652775       -1.8015797585       -3.8364402022
  H        -0.3414153077       -0.4568045730       -3.6018880199
  O         1.2403543494        3.3317531489       -0.4137853155
  H         2.0343362928        3.9589404076       -0.4591177794
  H         0.4198327751        3.8518250765       -0.3949259716
  O         4.3270971029        3.4721632922        3.6792624686
  H         3.8200211948        3.4362667910        4.5247195697
  H         3.7722727623        3.0634835288        2.9596936368
  O         3.7310669447        4.8231268985       -0.6765851537
  H         4.5468181353        4.5762064384       -0.1667980183
  H         3.3623422654       -4.5181733778       -0.1005736088
  O         4.8675448670       -3.1160690505        2.9119843042
  H        -4.7475437109       -2.1979417345        2.9166810800
  H         4.2409092987       -3.1067049023        3.6708461640
  O         4.1394402912        1.5878188772       -1.1393106662
  H         3.9281537112        0.7320521294       -1.5758186177
  H         4.7358704064        2.1533607163       -1.7466850397
  O         2.9408516269        4.6267830581       -3.9778909178
  H         3.5720155300        4.4621992130       -3.2606328330
  H         3.0116342494       -4.4989250353       -4.1432581789
  O        -1.5588751357        4.2605980085        1.4342136200
  H        -1.0869708717        4.8938081662        0.8273132455
  H        -2.4276894478        4.6963368909        1.4643505975
  X        -3.9477012490       -4.3827123719       -4.9770371641
  X        -3.6152245897       -3.2166437703       -2.1860720158
  X        -3.9179316348       -5.0271627535       -4.7262289334
  X        -3.2228654574       -1.8138210468       -4.7101322226
  X        -3.5917049661       -4.9346481290        4.9224153529
  X        -3.7894353279       -3.9499903680       -1.9531923133
  X        -4.1739676784       -3.4032335438       -1.8411028270
  X        -4.2568612222       -5.0364437129        4.7727304863
  X        -3.2344706522       -2.0600713386       -4.2283720646
  X        -3.7183334322       -3.4300050622       -1.5328452866
  X        -3.4835099099       -1.4330681494       -4.2245917025
  X        -3.8387476808        3.8341286662       -2.9325351329
  X        -2.7091669289       -1.6395163216       -4.3050276229
  X        -3.9165253268        4.1390561701       -2.3315667265
  X        -4.1859538377        3.6507016708       -2.3704672196
  X        -3.5105312971        3.5948612454       -2.2398322588
  X         2.9818915073       -4.9836016518       -4.0440248567
  X        -5.0069989993       -3.3458055947        2.9288792614
  X        -1.9451098730        4.7198993861        4.1454051746
  X         2.7590512151       -3.3475989471       -5.0400484169
  X        -3.6558622697        0.3922447639       -3.1443312224
  X         3.2730530459        4.5446108119       -3.5986760777
  X         4.5668170830       -3.1066941279        3.3068924953
  X        -3.8465801433       -4.3073155181        0.7547912229
  X        -3.6230502852        0.9170363815       -3.5530178635
  X        -0.5001287945       -3.2968726970        4.4816757340
  X         3.0469394145        4.4768553524       -4.2346554006
  X        -1.0094225684       -1.4023222890       -3.4318952623
  X        -4.9861165305       -2.6338070748        2.9305383696
  X         3.9281639624       -0.8745626642       -4.1294596570
  X        -4.1647041257       -4.3739524772        1.4644463876
  X         4.5319730359       -1.9788170411       -1.3294704786
  X        -3.7441671925        0.8748367995       -2.8975958589
  X         2.9333110160       -3.2258427979        4.5325506177
  X         2.8216100673       -2.6851828428        4.8979425660
  X        -4.0945964480       -4.8664762741        1.0260400250
  X        -3.0908190477        0.7479103509       -3.0150803209
  X        -1.2754561545        4.7443796043        4.2539973398
  X         4.7011216755       -3.1101765455        2.6595635989
  X        -3.6073003133       -4.7248377668        1.2554572803
  X         2.6200867361        4.5533428391       -3.8591285458
  X        -1.4796724883        4.2287193787        4.1521452521
  X         4.1244872889       -0.5743407169       -4.7001435765
  X        -0.3591994580       -1.6031844503       -3.5554254064
  X        -0.1449276553       -2.7407688905        4.6620809241
  X         3.6765632703       -1.1028674922       -4.5781302981
  X         2.2568980544       -3.1588516789        4.6230115008
  X        -0.6519885730       -1.3908039898       -2.9745793326
  X         3.8044143175        4.9242225701       -0.9544814049
  X         0.0670484488       -2.9893724396        4.2255332978
  X         4.0268007574       -1.8976007912       -0.8592155158
  X         4.4038105502        3.7827881084        3.6412706072
  X        -1.4000934586        4.5981528268        3.6003848844
  X         4.5559576737       -1.4709551802       -0.7611222370
  X        -0.4708184668       -2.5784536595        4.0900444750
  X        -4.2367096198        0.7862614155        4.1677829627
  X        -0.5500818871       -0.8968868116       -3.4212242687
  X         3.4242845592       -0.4929885599       -4.3601458260
  X         4.1549502802        4.6910785734       -0.4096258242
  X         0.3470130296        3.7056285077       -4.1958433528
  X         3.5607046249       -4.8952851337       -0.3903900167
  X        -4.3376795813        1.3808854622        3.8534171668
  X         4.0482566451        3.4392320569        4.1152907160
  X         4.1020942573       -1.4868527270       -1.2298651433
  X        -1.3347179665        2.0473833947       -2.6086503308
  X        -0.4317805442       -3.6883996066       -0.4903443590
  X         4.5713828668        3.2578220952        3.7177481235
  X         0.9886838134        3.8149284502       -3.7145087220
  X        -3.6494504688        1.0060133440        3.9241586414
  X         0.3815154439        3.5525240635       -3.5203271942
  X        -1.9986152543        4.4750420661        1.4465071630
  X         3.5033623015        4.5813641910       -0.6341670424
  X        -4.1899135782        0.7603681658        3.6161943986
  X        -1.2759169126       -1.9150265753        2.2390627691
  X        -1.4770370685        2.3964772419       -2.2114259278
  X        -0.8867500535        2.5265878668       -2.5019927993
  X        -3.8946136423       -0.7364197964        1.3273776891
  X        -0.3512221734       -3.7318491634        0.1894699643
  X         0.6862078227        3.2317754300       -3.8472743539
  X        -0.1587479668       -4.1727032906       -0.0622323060
  X         4.4419649641        1.8599669588       -1.4694057309
  X        -1.5831203666        3.9753743489        1.3010674592
  X         4.0341653428        3.2941596991        3.3352786474
  X         2.7151987750       -2.8145044746        0.2081487288
  X        -4.2369138040       -0.5286040833        0.9503236601
  X        -1.8205351011       -1.7996924915        1.8419786755
  X        -1.3176080678        4.5792384396        1.1169679520
  X         0.2547053277       -3.6207126968       -0.0614284354
  X        -1.8873078792        1.3752276651        3.7423935471
  X        -1.2361726412       -1.4784939596        1.9273286461
  X        -3.6915645289       -0.1448316195        1.0780674737
  X        -1.0169410086        1.9193972925       -2.0249373057
  X         2.6165755808       -3.4537295398        0.3970339047
  X         2.1295063472       -3.1381213122        0.3759048768
  X        -4.3080855071       -0.2559204259        1.5844865391
  X         4.0419177926        1.1404935621       -1.3891606671
  X        -1.5672540686        1.9946052306        3.7133263236
  X        -1.4277575281        4.3042029063        1.7388442437
  X         0.5934656658        0.4727673933       -4.1585630796
  X         4.3013643866        1.5223024142       -0.8858473106
  X        -1.0776995716       -2.0502077827        1.5881641200
  X         2.5370222509       -3.0292172608        0.9344351180
  X         1.1482076249        0.5264668548       -4.2746449632
  X        -1.3203444244        1.3665025309        3.8295664878
  X         0.8529609374        1.1212058425       -4.1641194143
  X         3.8702632268        1.7336753258       -1.1159182343
  X         0.7602306867        0.6802526492       -4.7938849537
  X        -1.4914788073        1.4182592467        3.1793945871
  X        -2.1964125558        1.1510387551        0.8876709392
  X         1.6201125800        3.6626141318       -0.4419047923
  X        -1.9793152857        1.7871625891        0.7057404192
  X        -1.8099997403        1.3827363314        1.2434152130
  X         0.8105898208        3.6210658782       -0.4036638685
  X         1.2308560898        3.1483762742       -0.6689519131
  X        -1.5438214021        1.1389751561        0.6586162414
  X         3.7655521114        1.8615400910        1.5061408918
  X         0.4926494307        0.1807961520       -0.9177236638
  X         3.4492712572        2.2797027924        1.9676783956
  X         0.5522325533       -0.2227697823        2.6612174492
  X         1.2628003806        3.1905034728       -0.1371886998
  X         0.0595312569        0.6442465345       -0.6418668595
  X         3.2039512041        1.8025015418        1.8407293492
  X         0.4147579109        0.4411204370       -0.2953443144
  X         1.2002067766       -0.4430936515        2.5917784059
  X         1.1631938125        0.0000214261        2.9022192307
  X         3.0744328660        2.2536275200        1.3725639537
  X         0.6707357478        0.9332303778       -0.6611900317
  X         1.1560014513        0.1240226236        2.2264512058
